
          11280714482D 1   1.00000     0.00000     0

 16 16  0     0  0            999 V2000
    4.2375   -2.2375    0.0000 P   0  0  3  0  0  0           0  0  0
    6.3792   -5.7542    0.0000 C   0  0  0  0  0  0           0  0  0
    5.5542   -5.7750    0.0000 C   0  0  3  0  0  0           0  0  0
    5.0375   -2.4292    0.0000 O   0  0  0  0  0  0           0  0  0
    5.1292   -5.0667    0.0000 C   0  0  0  0  0  0           0  0  0
    3.8417   -2.9625    0.0000 C   0  0  0  0  0  0           0  0  0
    6.7792   -5.0292    0.0000 O   0  0  0  0  0  0           0  0  0
    3.4292   -2.0500    0.0000 O   0  0  0  0  0  0           0  0  0
    4.0000   -1.4417    0.0000 O   0  0  0  0  0  0           0  0  0
    5.5167   -4.3417    0.0000 C   0  0  0  0  0  0           0  0  0
    4.3042   -5.0917    0.0000 C   0  0  0  0  0  0           0  0  0
    5.1667   -6.5000    0.0000 N   0  0  0  0  0  0           0  0  0
    4.2667   -3.6667    0.0000 C   0  0  0  0  0  0           0  0  0
    6.8167   -6.4542    0.0000 O   0  0  0  0  0  0           0  0  0
    5.0917   -3.6417    0.0000 C   0  0  0  0  0  0           0  0  0
    3.8750   -4.3792    0.0000 C   0  0  0  0  0  0           0  0  0
  2  3  1  0     0  0
  3  5  1  0     0  0
  4  1  2  0     0  0
  5 11  2  0     0  0
  6  1  1  0     0  0
  7  2  2  0     0  0
  8  1  1  0     0  0
  9  1  1  0     0  0
 10 15  2  0     0  0
 11 16  1  0     0  0
 12  3  1  0     0  0
 13  6  1  0     0  0
 14  2  1  0     0  0
 15 13  1  0     0  0
 16 13  2  0     0  0
  5 10  1  0     0  0
M  END