
  SciTegic10311217562D

 45 43  0  0  0  0            999 V2000
    5.4208   -0.9250    0.0000 C   0  0
    5.4208   -1.7500    0.0000 C   0  0
    6.1328   -2.1584    0.0000 C   0  0
    6.1328   -0.5084    0.0000 C   0  0
    6.8487   -1.7502    0.0000 C   0  0
    1.1375   -3.3834    0.0000 C   0  0  2  0  0  0
    1.1375   -4.2084    0.0000 C   0  0  1  0  0  0
    1.8495   -4.6167    0.0000 C   0  0  2  0  0  0
    2.5615   -4.2084    0.0000 O   0  0
    2.5615   -3.3834    0.0000 C   0  0  1  0  0  0
    1.8495   -2.9667    0.0000 C   0  0  1  0  0  0
    3.2772   -2.9730    0.0000 C   0  0
    0.4218   -2.9730    0.0000 O   0  0
    0.4236   -4.6219    0.0000 O   0  0
    1.8495   -2.1417    0.0000 O   0  0
    1.8495   -5.4417    0.0000 O   0  0
    3.9904   -3.3876    0.0000 N   0  0
    2.5640   -5.8542    0.0000 C   0  0
    4.7061   -2.9771    0.0000 C   0  0
    5.4194   -3.3917    0.0000 C   0  0
    4.7085   -2.1522    0.0000 O   0  0
    6.1351   -2.9813    0.0000 N   0  0
    6.8483   -3.3959    0.0000 C   0  0
    7.5640   -2.9855    0.0000 O   0  0
    1.1350   -1.7292    0.0000 S   0  0
    0.4205   -2.1417    0.0000 O   0  5
    0.7166   -1.0125    0.0000 O   0  0
    1.5416   -1.0125    0.0000 O   0  0
   -0.2915   -3.3876    0.0000 S   0  0
   -1.0071   -2.9771    0.0000 O   0  5
   -0.7084   -4.1000    0.0000 O   0  0
    0.1166   -4.1000    0.0000 O   0  0
    0.4248   -5.4469    0.0000 S   0  0
   -0.2891   -5.8604    0.0000 O   0  5
    1.2458   -5.4459    0.0000 O   0  0
    0.8291   -6.1584    0.0000 O   0  0
    6.8459   -4.2209    0.0000 C   0  0
    6.8416   -0.9250    0.0000 C   0  0
    6.1336    0.3166    0.0000 C   0  0
    6.8485    0.7284    0.0000 C   0  0
    6.8493    1.5534    0.0000 C   0  0
    7.5642    1.9652    0.0000 C   0  0
   -1.3458   -6.2125    0.0000 Na  0  3
   -0.2833   -1.8083    0.0000 Na  0  3
   -1.8750   -3.6833    0.0000 Na  0  3
 10 11  1  0
 22 23  1  0
  6  7  1  0
 23 24  2  0
 10 12  1  1
 15 25  1  0
  1  2  1  0
 25 26  1  0
  6 13  1  1
  1  4  1  0
 25 27  2  0
  7 14  1  1
 25 28  2  0
  2  3  1  0
 13 29  1  0
 11 15  1  6
 29 30  1  0
  3  5  1  0
 29 31  2  0
  8 16  1  6
 29 32  2  0
 38  4  1  0
 12 17  1  0
 14 33  1  0
 33 34  1  0
 16 18  1  0
 33 35  2  0
  6 11  1  0
 33 36  2  0
 17 19  1  0
 22  3  1  0
  7  8  1  0
 23 37  1  0
 19 20  1  0
  5 38  1  0
  8  9  1  0
  4 39  1  0
 19 21  2  0
 39 40  1  0
  9 10  1  0
 40 41  1  0
 20 22  1  0
 41 42  1  0
M  CHG  6  26  -1  30  -1  34  -1  43   1  44   1  45   1
M  END