
          11280714522D 1   1.00000     0.00000     0

 57 62  0     1  0            999 V2000
    5.9917   -2.9417    0.0000 N   0  0  0  0  0  0           0  0  0
    6.3500   -2.1917    0.0000 C   0  0  2  0  0  0           0  0  0
    5.1750   -1.2542    0.0000 N   0  0  3  0  0  0           0  0  0
    5.9875   -1.4375    0.0000 C   0  0  0  0  0  0           0  0  0
    5.1792   -3.1292    0.0000 C   0  0  0  0  0  0           0  0  0
    4.5250   -2.6125    0.0000 C   0  0  0  0  0  0           0  0  0
    7.1750   -2.1875    0.0000 N   0  0  0  0  0  0           0  0  0
    4.5250   -1.7792    0.0000 C   0  0  0  0  0  0           0  0  0
    7.5875   -2.9000    0.0000 C   0  0  0  0  0  0           0  0  0
    7.1792   -6.4667    0.0000 C   0  0  0  0  0  0           0  0  0
    8.4125   -2.9000    0.0000 N   0  0  0  0  0  0           0  0  0
   -1.8208  -10.2917    0.0000 N   0  0  3  0  0  0           0  0  0
    6.5000   -0.7917    0.0000 O   0  0  0  0  0  0           0  0  0
    5.1167   -8.6167    0.0000 C   0  0  0  0  0  0           0  0  0
    4.9917   -3.9375    0.0000 C   0  0  0  0  0  0           0  0  0
    7.1792   -3.6167    0.0000 O   0  0  0  0  0  0           0  0  0
    6.3542   -6.4667    0.0000 O   0  0  0  0  0  0           0  0  0
    7.5917   -5.7542    0.0000 O   0  0  0  0  0  0           0  0  0
    8.8292   -3.6125    0.0000 C   0  0  0  0  0  0           0  0  0
    5.3125   -9.4167    0.0000 O   0  0  0  0  0  0           0  0  0
   -1.2208   -9.7292    0.0000 C   0  0  0  0  0  0           0  0  0
    7.5917   -7.1792    0.0000 N   0  0  0  0  0  0           0  0  0
   -0.4333   -9.9667    0.0000 C   0  0  0  0  0  0           0  0  0
    4.3292   -8.3917    0.0000 N   0  0  0  0  0  0           0  0  0
    4.9875   -0.4542    0.0000 C   0  0  0  0  0  0           0  0  0
    8.4167   -4.3167    0.0000 C   0  0  0  0  0  0           0  0  0
    0.1667   -9.4000    0.0000 C   0  0  0  0  0  0           0  0  0
    8.4167   -5.7542    0.0000 C   0  0  0  0  0  0           0  0  0
    3.8042   -3.0250    0.0000 C   0  0  0  0  0  0           0  0  0
    8.8292   -5.0375    0.0000 C   0  0  0  0  0  0           0  0  0
    0.9542   -9.6292    0.0000 C   0  0  0  0  0  0           0  0  0
    3.8042   -1.3667    0.0000 C   0  0  0  0  0  0           0  0  0
    2.9417   -8.7292    0.0000 C   0  0  0  0  0  0           0  0  0
    1.5500   -9.0667    0.0000 O   0  0  0  0  0  0           0  0  0
   -1.6250  -11.1000    0.0000 C   0  0  0  0  0  0           0  0  0
   -2.6083  -10.0542    0.0000 C   0  0  0  0  0  0           0  0  0
   10.0667   -4.3167    0.0000 C   0  0  0  0  0  0           0  0  0
    0.5542  -11.0042    0.0000 C   0  0  0  0  0  0           0  0  0
    5.9417   -8.6167    0.0000 C   0  0  0  0  0  0           0  0  0
    3.7292   -8.9625    0.0000 C   0  0  0  0  0  0           0  0  0
    9.6500   -3.6042    0.0000 C   0  0  0  0  0  0           0  0  0
   -0.2375  -10.7667    0.0000 C   0  0  0  0  0  0           0  0  0
    4.2042   -4.1792    0.0000 C   0  0  0  0  0  0           0  0  0
    5.6000   -4.4917    0.0000 C   0  0  0  0  0  0           0  0  0
    2.3417   -9.2917    0.0000 C   0  0  0  0  0  0           0  0  0
    7.1792   -7.9000    0.0000 C   0  0  0  0  0  0           0  0  0
    9.6542   -5.0375    0.0000 C   0  0  0  0  0  0           0  0  0
    1.1542  -10.4292    0.0000 C   0  0  0  0  0  0           0  0  0
    6.3542   -7.9000    0.0000 C   0  0  0  0  0  0           0  0  0
    3.0917   -2.6125    0.0000 C   0  0  0  0  0  0           0  0  0
    3.0917   -1.7875    0.0000 C   0  0  0  0  0  0           0  0  0
   -3.2083  -10.6292    0.0000 C   0  0  0  0  0  0           0  0  0
   -2.2208  -11.6667    0.0000 C   0  0  0  0  0  0           0  0  0
    4.0250   -4.9792    0.0000 C   0  0  0  0  0  0           0  0  0
    5.4167   -5.2917    0.0000 C   0  0  0  0  0  0           0  0  0
    4.6292   -5.5417    0.0000 C   0  0  0  0  0  0           0  0  0
   -3.0125  -11.4292    0.0000 C   0  0  0  0  0  0           0  0  0
  2  1  1  0     0  0
  3  4  1  0     0  0
  4  2  1  0     0  0
  5  1  2  0     0  0
  6  5  1  0     0  0
  2  7  1  6     0  0
  8  6  1  0     0  0
  9  7  1  0     0  0
 10 18  1  0     0  0
 11  9  1  0     0  0
 12 21  1  0     0  0
 13  4  2  0     0  0
 14 39  1  0     0  0
 15  5  1  0     0  0
 16  9  2  0     0  0
 17 10  2  0     0  0
 18 28  1  0     0  0
 19 11  1  0     0  0
 20 14  2  0     0  0
 21 23  1  0     0  0
 22 10  1  0     0  0
 23 27  2  0     0  0
 24 14  1  0     0  0
 25  3  1  0     0  0
 26 19  2  0     0  0
 27 31  1  0     0  0
 28 30  1  0     0  0
 29  6  2  0     0  0
 30 26  1  0     0  0
 31 34  1  0     0  0
 32  8  2  0     0  0
 33 40  1  0     0  0
 34 45  1  0     0  0
 35 12  1  0     0  0
 36 12  1  0     0  0
 37 41  2  0     0  0
 38 48  1  0     0  0
 39 49  1  0     0  0
 40 24  1  0     0  0
 41 19  1  0     0  0
 42 38  2  0     0  0
 43 15  2  0     0  0
 44 15  1  0     0  0
 45 33  1  0     0  0
 46 22  1  0     0  0
 47 37  1  0     0  0
 48 31  2  0     0  0
 49 46  1  0     0  0
 50 29  1  0     0  0
 51 50  2  0     0  0
 52 36  1  0     0  0
 53 35  1  0     0  0
 54 43  1  0     0  0
 55 44  2  0     0  0
 56 55  1  0     0  0
 57 52  1  0     0  0
  8  3  1  0     0  0
 54 56  2  0     0  0
 32 51  1  0     0  0
 30 47  2  0     0  0
 42 23  1  0     0  0
 53 57  1  0     0  0
M  END