
  SciTegic05171617282D

 45 50  0  0  0  0            999 V2000
   -1.4823   22.4285    0.0000 C   0  0
   -2.1158   21.4094    0.0000 N   0  0
   -3.3152   21.4488    0.0000 C   0  0
   -1.4089   20.0854    0.0000 C   0  0
   -2.1990   18.8103    0.0000 C   0  0
   -1.4898   17.4886    0.0000 C   0  0
    0.0095   17.4418    0.0000 C   0  0
    0.7218   16.1208    0.0000 O   0  0
    2.2219   16.0762    0.0000 C   0  0
    3.0092   17.3530    0.0000 C   0  0
    4.5086   17.3096    0.0000 C   0  0
    5.1384   18.3310    0.0000 O   0  0
    5.2207   15.9894    0.0000 C   0  0
    4.4334   14.7126    0.0000 C   0  0
    5.0028   13.6563    0.0000 O   0  0
    2.9390   14.7568    0.0000 C   0  0
    2.0575   13.5422    0.0000 C   0  0
    2.5217   12.1158    0.0000 C   0  0
    1.3086   11.2554    0.0000 C   0  0
    0.0946   12.1147    0.0000 N   0  0
    0.5575   13.5415    0.0000 O   0  0
    1.3062    9.7546    0.0000 C   0  0
    2.3447    9.1533    0.0000 O   0  0
    0.0057    9.0054    0.0000 N   0  0
    0.0034    7.5046    0.0000 C   0  0
   -1.2953    6.7540    0.0000 C   0  0
   -1.2946    5.2540    0.0000 C   0  0
    0.0051    4.5042    0.0000 N   0  0
    1.3035    5.2552    0.0000 C   0  0
    1.3028    6.7552    0.0000 C   0  0
    0.0000    3.0035    0.0000 C   0  0
    1.2785    2.2729    0.0000 C   0  0
    1.2785    0.7306    0.0000 C   0  0
    0.0000    0.0000    0.0000 C   0  0
   -1.2988    0.7306    0.0000 C   0  0
   -1.2988    2.2729    0.0000 C   0  0
   -1.2988   -0.7509    0.0000 O   0  0
   -1.2988   -2.2526    0.0000 C   0  0
    0.0000   -3.0238    0.0000 C   0  0
    1.0543   -3.5968    0.0000 C   0  0
   -1.0503   -3.6043    0.0000 C   0  0
    1.2785   -2.2526    0.0000 C   0  0
    1.2785   -0.7509    0.0000 O   0  0
    0.7995   18.7170    0.0000 C   0  0
    0.0903   20.0387    0.0000 C   0  0
  1  2  1  0
  2  3  1  0
  2  4  1  0
  4  5  2  0
  5  6  1  0
  6  7  2  0
  7  8  1  0
  8  9  1  0
  9 10  2  0
 10 11  1  0
 11 12  1  0
 11 13  2  0
 13 14  1  0
 14 15  1  0
 14 16  2  0
  9 16  1  0
 16 17  1  0
 17 18  2  0
 18 19  1  0
 19 20  2  0
 20 21  1  0
 17 21  1  0
 19 22  1  0
 22 23  2  0
 22 24  1  0
 24 25  1  0
 25 26  1  0
 26 27  1  0
 27 28  1  0
 28 29  1  0
 29 30  1  0
 25 30  1  0
 28 31  1  0
 31 32  1  0
 32 33  1  0
 33 34  1  0
 34 35  1  0
 35 36  1  0
 31 36  1  0
 34 37  1  0
 37 38  1  0
 38 39  1  0
 39 40  1  0
 39 41  1  0
 39 42  1  0
 42 43  1  0
 34 43  1  0
  7 44  1  0
 44 45  2  0
  4 45  1  0
M  END