
          11280715382D 1   1.00000     0.00000     0

 33 37  0     0  0            999 V2000
    0.2875   -0.6500    0.0000 C   0  0  0  0  0  0           0  0  0
    0.2875   -0.0500    0.0000 C   0  0  0  0  0  0           0  0  0
   -0.2333    0.2500    0.0000 C   0  0  0  0  0  0           0  0  0
   -0.7583   -0.6417    0.0000 C   0  0  0  0  0  0           0  0  0
   -0.2333   -0.9500    0.0000 C   0  0  0  0  0  0           0  0  0
    0.8000    0.2500    0.0000 O   0  0  0  0  0  0           0  0  0
    0.8000   -0.9500    0.0000 C   0  0  0  0  0  0           0  0  0
    1.3250   -0.0500    0.0000 C   0  0  0  0  0  0           0  0  0
   -0.7583   -0.0500    0.0000 C   0  0  0  0  0  0           0  0  0
    1.3250   -0.6417    0.0000 C   0  0  0  0  0  0           0  0  0
   -0.2375    0.8500    0.0000 C   0  0  0  0  0  0           0  0  0
   -1.2750   -0.9375    0.0000 C   0  0  0  0  0  0           0  0  0
    0.8000   -1.5500    0.0000 O   0  0  0  0  0  0           0  0  0
    1.8500    0.2500    0.0000 C   0  0  0  0  0  0           0  0  0
   -0.2250   -1.5500    0.0000 O   0  0  0  0  0  0           0  0  0
   -1.2958    0.2375    0.0000 O   0  0  0  0  0  0           0  0  0
   -0.7500    1.1625    0.0000 C   0  0  0  0  0  0           0  0  0
   -1.8000   -0.6375    0.0000 C   0  0  0  0  0  0           0  0  0
    1.8500    0.8583    0.0000 C   0  0  0  0  0  0           0  0  0
    2.3667   -0.0500    0.0000 C   0  0  0  0  0  0           0  0  0
   -0.7375    1.7625    0.0000 C   0  0  0  0  0  0           0  0  0
   -1.2750    0.8708    0.0000 C   0  0  0  0  0  0           0  0  0
   -1.8000   -0.0292    0.0000 C   0  0  0  0  0  0           0  0  0
   -2.3208   -0.9375    0.0000 C   0  0  0  0  0  0           0  0  0
    2.8917    0.2583    0.0000 C   0  0  0  0  0  0           0  0  0
    2.3667    1.1583    0.0000 C   0  0  0  0  0  0           0  0  0
   -1.7875    1.1750    0.0000 C   0  0  0  0  0  0           0  0  0
   -2.3250    0.2625    0.0000 C   0  0  0  0  0  0           0  0  0
   -2.8375   -0.6375    0.0000 C   0  0  0  0  0  0           0  0  0
   -1.2500    2.0708    0.0000 C   0  0  0  0  0  0           0  0  0
   -2.8458   -0.0292    0.0000 C   0  0  0  0  0  0           0  0  0
    2.8917    0.8500    0.0000 C   0  0  0  0  0  0           0  0  0
   -1.7833    1.7750    0.0000 C   0  0  0  0  0  0           0  0  0
  2  1  2  0     0  0
  3  2  1  0     0  0
  4  5  2  0     0  0
  5  1  1  0     0  0
  6  2  1  0     0  0
  7  1  1  0     0  0
  8 10  2  0     0  0
  9  4  1  0     0  0
 10  7  1  0     0  0
 11  3  1  0     0  0
 12  4  1  0     0  0
 13  7  2  0     0  0
 14  8  1  0     0  0
 15  5  1  0     0  0
 16  9  1  0     0  0
 17 11  1  0     0  0
 18 12  1  0     0  0
 19 14  1  0     0  0
 20 14  2  0     0  0
 21 17  2  0     0  0
 22 17  1  0     0  0
 23 18  2  0     0  0
 24 18  1  0     0  0
 25 20  1  0     0  0
 26 19  2  0     0  0
 27 22  2  0     0  0
 28 23  1  0     0  0
 29 24  2  0     0  0
 30 21  1  0     0  0
 31 29  1  0     0  0
 32 25  2  0     0  0
 33 27  1  0     0  0
  8  6  1  0     0  0
  9  3  2  0     0  0
 32 26  1  0     0  0
 31 28  2  0     0  0
 33 30  2  0     0  0
M  END