
          11280715142D 1   1.00000     0.00000     0

 32 35  0     1  0            999 V2000
    3.0917    0.7875    0.0000 C   0  0  2  0  0  0           0  0  0
    3.5000    0.0750    0.0000 C   0  0  1  0  0  0           0  0  0
    2.4292    1.3000    0.0000 C   0  0  0  0  0  0           0  0  0
    3.0750    2.6583    0.0000 N   0  0  3  0  0  0           0  0  0
    2.4292    2.1333    0.0000 C   0  0  0  0  0  0           0  0  0
    3.2917   -1.4292    0.0000 C   0  0  0  0  0  0           0  0  0
    3.9000    0.9833    0.0000 N   0  0  0  0  0  0           0  0  0
    3.8792    2.4750    0.0000 C   0  0  0  0  0  0           0  0  0
    4.2917   -0.1375    0.0000 C   0  0  0  0  0  0           0  0  0
    3.0792   -0.6375    0.0000 O   0  0  0  0  0  0           0  0  0
    2.7042   -2.0125    0.0000 N   0  0  0  0  0  0           0  0  0
    4.0792   -1.6417    0.0000 N   0  0  0  0  0  0           0  0  0
    4.2542    1.7333    0.0000 C   0  0  0  0  0  0           0  0  0
    2.5042    0.2083    0.0000 C   0  0  0  0  0  0           0  0  0
    4.3000   -2.4292    0.0000 C   0  0  0  0  0  0           0  0  0
    2.9167   -2.8042    0.0000 C   0  0  0  0  0  0           0  0  0
    3.7167   -3.0167    0.0000 C   0  0  0  0  0  0           0  0  0
    4.3917    3.1250    0.0000 O   0  0  0  0  0  0           0  0  0
    4.5042   -0.9292    0.0000 O   0  0  0  0  0  0           0  0  0
    5.0917    0.0833    0.0000 O   0  0  0  0  0  0           0  0  0
    1.7167    0.8875    0.0000 C   0  0  0  0  0  0           0  0  0
    2.8875    3.4583    0.0000 C   0  0  0  0  0  0           0  0  0
    1.7167    2.5458    0.0000 C   0  0  0  0  0  0           0  0  0
    2.7125   -0.5917    0.0000 C   0  0  0  0  0  0           0  0  0
    1.7042    0.4333    0.0000 C   0  0  0  0  0  0           0  0  0
    5.0917   -2.6417    0.0000 C   0  0  0  0  0  0           0  0  0
    2.3375   -3.3917    0.0000 C   0  0  0  0  0  0           0  0  0
    1.0042    1.3000    0.0000 C   0  0  0  0  0  0           0  0  0
    1.0042    2.1250    0.0000 C   0  0  0  0  0  0           0  0  0
    1.1167   -0.1417    0.0000 C   0  0  0  0  0  0           0  0  0
    2.1167   -1.1667    0.0000 C   0  0  0  0  0  0           0  0  0
    1.3167   -0.9417    0.0000 C   0  0  0  0  0  0           0  0  0
  2  1  1  0     0  0
  3  1  1  0     0  0
  4  5  1  0     0  0
  5  3  1  0     0  0
  6 10  1  0     0  0
  7  1  1  0     0  0
  8 13  1  0     0  0
  9  2  1  0     0  0
  2 10  1  1     0  0
 11  6  2  0     0  0
 12  6  1  0     0  0
 13  7  1  0     0  0
  1 14  1  1     0  0
 15 12  2  0     0  0
 16 11  1  0     0  0
 17 15  1  0     0  0
 18  8  2  0     0  0
 19  9  2  0     0  0
 20  9  1  0     0  0
 21  3  2  0     0  0
 22  4  1  0     0  0
 23  5  2  0     0  0
 24 14  1  0     0  0
 25 14  2  0     0  0
 26 15  1  0     0  0
 27 16  1  0     0  0
 28 21  1  0     0  0
 29 28  2  0     0  0
 30 25  1  0     0  0
 31 24  2  0     0  0
 32 30  2  0     0  0
  4  8  1  0     0  0
 31 32  1  0     0  0
 23 29  1  0     0  0
 16 17  2  0     0  0
M  END