
  SciTegic05061116452D

 35 39  0  0  0  0            999 V2000
   -1.8568   -0.4164    0.0000 N   0  0
   -1.1451   -0.0078    0.0000 C   0  0
   -1.1451    0.8172    0.0000 N   0  0
   -1.8568    1.2336    0.0000 C   0  0
   -2.5685   -0.0078    0.0000 C   0  0
   -2.5685    0.8218    0.0000 C   0  0
   -3.3574    1.0783    0.0000 N   0  0
   -3.8451    0.4070    0.0000 C   0  0
   -3.3575   -0.2640    0.0000 N   0  0
   -3.6125   -1.0487    0.0000 C   0  0
   -4.4194   -1.2202    0.0000 C   0  0
   -4.6744   -2.0048    0.0000 O   0  0
   -4.9714   -0.6071    0.0000 O   0  0
   -1.8548    2.0587    0.0000 N   0  0
   -0.4310   -0.4211    0.0000 N   0  0
    0.2839   -0.0095    0.0000 C   0  0
    0.9980   -0.4229    0.0000 C   0  0
   -1.1393    2.4695    0.0000 C   0  0
    0.9924   -1.2462    0.0000 C   0  0
    1.7056   -1.6595    0.0000 C   0  0
    2.4215   -1.2478    0.0000 C   0  0
    2.4199   -0.4185    0.0000 C   0  0
    1.7061   -0.0090    0.0000 C   0  0
    3.1322   -1.6574    0.0000 C   0  0
    3.1304   -2.4834    0.0000 C   0  0
    3.8407   -2.8957    0.0000 C   0  0
    4.5576   -2.4866    0.0000 C   0  0
    4.5594   -1.6606    0.0000 C   0  0
    3.8445   -1.2438    0.0000 C   0  0
   -0.4258    2.0552    0.0000 C   0  0
   -0.4330    1.2287    0.0000 C   0  0
    0.2796    0.8145    0.0000 C   0  0
    0.9961    1.2254    0.0000 C   0  0
    0.9954    2.0547    0.0000 C   0  0
    0.2823    2.4651    0.0000 C   0  0
 16 17  1  0
  7  8  2  0
 14 18  1  0
  8  9  1  0
 17 19  2  0
  9  5  1  0
 19 20  1  0
  3  4  2  0
 20 21  2  0
  9 10  1  0
 21 22  1  0
  5  6  2  0
 22 23  2  0
 23 17  1  0
 24 25  1  0
 10 11  1  0
 11 12  1  0
  6  4  1  0
 11 13  2  0
  5  1  1  0
 24 29  1  0
 25 26  1  0
 26 27  1  0
 27 28  1  0
 28 29  1  0
 21 24  1  0
  4 14  1  0
 18 30  1  0
  1  2  2  0
 30 31  2  0
  2 15  1  0
 31 32  1  0
  2  3  1  0
 32 33  2  0
 15 16  1  0
 33 34  1  0
  6  7  1  0
 34 35  2  0
 35 30  1  0
M  END