
  SciTegic12231509382D

 24 26  0  0  1  0            999 V2000
    9.2804  -18.1333    0.0000 O   0  0
    9.9949  -21.8458    0.0000 O   0  0
   10.7094  -17.3083    0.0000 N   0  0
   10.7094  -18.1333    0.0000 C   0  0  2  0  0  0
    9.9949  -18.5458    0.0000 C   0  0  1  0  0  0
    9.9949  -19.3708    0.0000 C   0  0
   11.4238  -16.8958    0.0000 C   0  0
    9.9949  -16.8958    0.0000 C   0  0
   10.7094  -15.6583    0.0000 C   0  0
    9.2804  -19.7833    0.0000 C   0  0
   10.7094  -19.7833    0.0000 C   0  0
   11.4238  -16.0708    0.0000 C   0  0
    9.9949  -16.0708    0.0000 C   0  0
    9.9949  -21.0208    0.0000 C   0  0
   11.4238  -18.5458    0.0000 C   0  0
   10.7094  -14.8333    0.0000 C   0  0
    9.2804  -20.6083    0.0000 C   0  0
   10.7094  -20.6083    0.0000 C   0  0
    9.9949  -14.4208    0.0000 C   0  0
    9.9949  -13.5958    0.0000 C   0  0
    9.2804  -14.8333    0.0000 C   0  0
    9.2804  -13.1833    0.0000 C   0  0
    8.5659  -14.4208    0.0000 C   0  0
    8.5659  -13.5958    0.0000 C   0  0
  5  1  1  1
  2 14  1  0
  3  4  1  0
  3  7  1  0
  3  8  1  0
  4  5  1  0
  4 15  1  1
  5  6  1  0
  6 10  2  0
  6 11  1  0
  7 12  1  0
  8 13  1  0
  9 12  1  0
  9 13  1  0
  9 16  1  0
 10 17  1  0
 11 18  2  0
 14 17  2  0
 14 18  1  0
 16 19  1  0
 19 20  2  0
 19 21  1  0
 20 22  1  0
 21 23  2  0
 22 24  2  0
 23 24  1  0
M  END