
  SciTegic05061116452D

 26 28  0  0  0  0            999 V2000
   21.5975   -5.3936    0.0000 N   0  0
   22.3092   -4.9850    0.0000 C   0  0
   22.3092   -4.1601    0.0000 N   0  0
   21.5975   -3.7436    0.0000 C   0  0
   20.8858   -4.9850    0.0000 C   0  0
   20.8858   -4.1555    0.0000 C   0  0
   20.0969   -3.8990    0.0000 N   0  0
   19.6092   -4.5702    0.0000 C   0  0
   20.0968   -5.2413    0.0000 N   0  0
   19.8418   -6.0259    0.0000 C   0  0
   19.0349   -6.1974    0.0000 C   0  0
   18.7799   -6.9820    0.0000 O   0  0
   18.4829   -5.5843    0.0000 O   0  0
   21.5994   -2.9186    0.0000 N   0  0
   23.0232   -5.3984    0.0000 N   0  0
   23.7381   -4.9867    0.0000 C   0  0
   24.4521   -5.4001    0.0000 C   0  0
   25.1671   -4.9885    0.0000 C   0  0
   25.8810   -5.4019    0.0000 C   0  0
   26.5961   -4.9902    0.0000 C   0  0
   22.3149   -2.5079    0.0000 C   0  0
   23.0260   -2.9242    0.0000 C   0  0
   23.7392   -2.5169    0.0000 C   0  0
   23.7455   -1.6916    0.0000 C   0  0
   23.0321   -1.2751    0.0000 C   0  0
   22.3126   -1.6841    0.0000 C   0  0
  6  4  1  0
 11 13  2  0
  5  1  1  0
  4 14  1  0
  1  2  2  0
  2 15  1  0
  2  3  1  0
 15 16  1  0
  6  7  1  0
 16 17  1  0
  7  8  2  0
 17 18  1  0
  8  9  1  0
 18 19  1  0
  9  5  1  0
 19 20  1  0
  3  4  2  0
 14 21  1  0
 21 22  1  0
  9 10  1  0
  5  6  2  0
 10 11  1  0
 11 12  1  0
 21 26  1  0
 22 23  1  0
 23 24  1  0
 24 25  1  0
 25 26  1  0
M  END