
  Mrv0541 05211314572D          

 22 24  0  0  0  0            999 V2000
    6.5445   -9.5981    0.0000 C   0  0  0  0  0  0  0  0  0  0  0  0
    7.3515   -9.7697    0.0000 C   0  0  0  0  0  0  0  0  0  0  0  0
    7.9035   -9.1566    0.0000 C   0  0  0  0  0  0  0  0  0  0  0  0
    7.6486   -8.3720    0.0000 C   0  0  0  0  0  0  0  0  0  0  0  0
    6.8416   -8.2004    0.0000 C   0  0  0  0  0  0  0  0  0  0  0  0
    6.2896   -8.8135    0.0000 C   0  0  0  0  0  0  0  0  0  0  0  0
    5.9925  -10.2112    0.0000 C   0  0  0  0  0  0  0  0  0  0  0  0
    5.1855  -10.0397    0.0000 C   0  0  0  0  0  0  0  0  0  0  0  0
    4.9306   -9.2551    0.0000 C   0  0  0  0  0  0  0  0  0  0  0  0
    5.4826   -8.6420    0.0000 O   0  0  0  0  0  0  0  0  0  0  0  0
    4.1236   -9.0836    0.0000 O   0  0  0  0  0  0  0  0  0  0  0  0
    6.2474  -10.9959    0.0000 C   0  0  0  0  0  0  0  0  0  0  0  0
    7.0544  -11.1674    0.0000 C   0  0  0  0  0  0  0  0  0  0  0  0
    7.3094  -11.9520    0.0000 C   0  0  0  0  0  0  0  0  0  0  0  0
    7.3094  -13.2869    0.0000 N   0  0  0  0  0  0  0  0  0  0  0  0
    6.8244  -12.6194    0.0000 C   0  0  0  0  0  0  0  0  0  0  0  0
    8.0940  -13.0319    0.0000 C   0  0  0  0  0  0  0  0  0  0  0  0
    8.0940  -12.2069    0.0000 C   0  0  0  0  0  0  0  0  0  0  0  0
    8.8084  -11.7944    0.0000 C   0  0  0  0  0  0  0  0  0  0  0  0
    9.5229  -12.2069    0.0000 C   0  0  0  0  0  0  0  0  0  0  0  0
    9.5229  -13.0319    0.0000 C   0  0  0  0  0  0  0  0  0  0  0  0
    8.8084  -13.4444    0.0000 C   0  0  0  0  0  0  0  0  0  0  0  0
  9 11  1  0  0  0  0
  5  6  2  0  0  0  0
  7 12  1  0  0  0  0
  6  1  1  0  0  0  0
 12 13  1  0  0  0  0
  1  2  2  0  0  0  0
 13 14  1  0  0  0  0
  1  7  1  0  0  0  0
  3  4  2  0  0  0  0
 14 18  1  0  0  0  0
 17 15  1  0  0  0  0
 15 16  1  0  0  0  0
 16 14  2  0  0  0  0
  7  8  2  0  0  0  0
 17 18  2  0  0  0  0
  8  9  1  0  0  0  0
 18 19  1  0  0  0  0
  4  5  1  0  0  0  0
 19 20  2  0  0  0  0
  9 10  2  0  0  0  0
 20 21  1  0  0  0  0
  2  3  1  0  0  0  0
 21 22  2  0  0  0  0
 22 17  1  0  0  0  0
M  END