
  SciTegic02271514512D

 29 32  0  0  0  0            999 V2000
    5.3819  -15.6216    0.0000 O   0  0
    6.0918  -15.2171    0.0000 S   0  0
    5.3866  -14.8045    0.0000 O   0  0
    4.4113  -13.4397    0.0000 N   0  0
    2.5902  -14.6065    0.0000 C   0  0
    3.3850  -14.4151    0.0000 N   0  0
    3.6166  -13.6311    0.0000 C   0  0
    3.0534  -13.0385    0.0000 C   0  0
    2.2587  -13.2299    0.0000 C   0  0
    2.0271  -14.0139    0.0000 N   0  0
    3.2851  -12.2546    0.0000 F   0  0
    1.6102  -16.4811    0.0000 C   0  0
    1.5882  -15.6639    0.0000 C   0  0
    0.8695  -15.2744    0.0000 C   0  0
    0.1728  -15.7020    0.0000 C   0  0
    0.1948  -16.5192    0.0000 C   0  0
    0.9135  -16.9087    0.0000 N   0  0
    2.3942  -16.7127    0.0000 N   0  0
    2.3586  -15.3905    0.0000 C   0  0
    2.8567  -16.0387    0.0000 C   0  0
   -0.5520  -15.3124    0.0000 Cl  0  0
    4.9743  -14.0321    0.0000 C   0  0
    5.7687  -13.8407    0.0000 C   0  0  2  0  0  0
    6.3269  -14.4357    0.0000 N   0  0
    7.1184  -14.2471    0.0000 C   0  0
    7.3541  -13.4643    0.0000 C   0  0
    6.7919  -12.8699    0.0000 C   0  0
    5.9940  -13.0583    0.0000 C   0  0
    6.6522  -15.8132    0.0000 C   0  0
  2  1  2  0
  3  2  2  0
  5  6  1  0
  6  7  2  0
  7  8  1  0
  8  9  2  0
  9 10  1  0
  5 10  2  0
  8 11  1  0
 12 13  1  0
 13 14  2  0
 14 15  1  0
 15 16  2  0
 16 17  1  0
 12 17  2  0
 19 20  2  0
 18 20  1  0
 12 18  1  0
 13 19  1  0
 15 21  1  0
  5 19  1  0
  4  7  1  0
  4 22  1  0
 23 22  1  1
 23 24  1  0
 23 28  1  0
 24 25  1  0
 25 26  1  0
 26 27  1  0
 27 28  1  0
 24  2  1  0
  2 29  1  0
M  END