
          11280715502D 1   1.00000     0.00000     0

 21 23  0     0  0            999 V2000
    1.8761   -7.3216    0.0000 C   0  0  0  0  0  0           0  0  0
   -0.2673   -8.5591    0.0000 C   0  0  3  0  0  0           0  0  0
    0.4485   -8.9716    0.0000 C   0  0  0  0  0  0           0  0  0
    1.1602   -8.5591    0.0000 C   0  0  0  0  0  0           0  0  0
    1.1602   -7.7341    0.0000 N   0  0  3  0  0  0           0  0  0
    0.4485   -7.3216    0.0000 C   0  0  0  0  0  0           0  0  0
   -0.2673   -7.7341    0.0000 C   0  0  0  0  0  0           0  0  0
   -0.9832   -8.9716    0.0000 C   0  0  0  0  0  0           0  0  0
   -1.6949   -8.5591    0.0000 C   0  0  0  0  0  0           0  0  0
   -1.7839   -7.7409    0.0000 C   0  0  0  0  0  0           0  0  0
   -2.5899   -7.5686    0.0000 N   0  0  0  0  0  0           0  0  0
   -3.0024   -8.2803    0.0000 C   0  0  0  0  0  0           0  0  0
   -2.4493   -8.8967    0.0000 N   0  0  0  0  0  0           0  0  0
    2.5902   -7.7347    0.0000 N   0  0  0  0  0  0           0  0  0
    1.8768   -6.4966    0.0000 O   0  0  0  0  0  0           0  0  0
    3.3050   -7.3228    0.0000 C   0  0  0  0  0  0           0  0  0
    4.0166   -7.7386    0.0000 N   0  0  0  0  0  0           0  0  0
    4.7309   -7.3274    0.0000 C   0  0  0  0  0  0           0  0  0
    4.7320   -6.5015    0.0000 C   0  0  0  0  0  0           0  0  0
    4.0129   -6.0886    0.0000 C   0  0  0  0  0  0           0  0  0
    3.3015   -6.5022    0.0000 N   0  0  0  0  0  0           0  0  0
 10 11  1  0     0  0
 11 12  1  0     0  0
 12 13  2  0     0  0
 13  9  1  0     0  0
  5  1  1  0     0  0
  2  7  1  0     0  0
  3  4  1  0     0  0
  1 14  1  0     0  0
  4  5  1  0     0  0
  1 15  2  0     0  0
  5  6  1  0     0  0
 14 16  1  0     0  0
  6  7  1  0     0  0
 16 17  2  0     0  0
  2  8  1  0     0  0
 17 18  1  0     0  0
  8  9  1  0     0  0
 18 19  2  0     0  0
  9 10  2  0     0  0
 19 20  1  0     0  0
  2  3  1  0     0  0
 20 21  2  0     0  0
 21 16  1  0     0  0
M  END