
          11280715332D 1   1.00000     0.00000     0

 31 34  0     0  0            999 V2000
    0.2167    1.6208    0.0000 N   0  0  0  0  0  0           0  0  0
   -0.4458    1.1333    0.0000 C   0  0  0  0  0  0           0  0  0
   -0.1958    0.3458    0.0000 N   0  0  0  0  0  0           0  0  0
    0.8875    1.1333    0.0000 C   0  0  0  0  0  0           0  0  0
    0.6292    0.3458    0.0000 C   0  0  0  0  0  0           0  0  0
   -2.6333    1.0875    0.0000 C   0  0  3  0  0  0           0  0  0
   -1.8458    0.8333    0.0000 C   0  0  0  0  0  0           0  0  0
    4.9542   -1.9792    0.0000 N   0  0  0  0  0  0           0  0  0
   -1.2333    1.3875    0.0000 C   0  0  0  0  0  0           0  0  0
   -3.2458    0.5375    0.0000 C   0  0  0  0  0  0           0  0  0
   -2.8000    1.8958    0.0000 C   0  0  0  0  0  0           0  0  0
    1.6750    1.3875    0.0000 C   0  0  0  0  0  0           0  0  0
    3.0667    1.0875    0.0000 N   0  0  0  0  0  0           0  0  0
    4.1250   -0.8250    0.0000 C   0  0  0  0  0  0           0  0  0
    4.8667   -1.1625    0.0000 C   0  0  0  0  0  0           0  0  0
    2.2792    0.8333    0.0000 C   0  0  0  0  0  0           0  0  0
    4.2792   -2.4625    0.0000 C   0  0  0  0  0  0           0  0  0
   -2.1875    2.4458    0.0000 C   0  0  0  0  0  0           0  0  0
   -3.5833    2.1458    0.0000 C   0  0  0  0  0  0           0  0  0
   -4.0333    0.7958    0.0000 C   0  0  0  0  0  0           0  0  0
   -3.0708   -0.2667    0.0000 C   0  0  0  0  0  0           0  0  0
    3.6792    0.5333    0.0000 C   0  0  0  0  0  0           0  0  0
    3.5125   -0.2667    0.0000 C   0  0  0  0  0  0           0  0  0
    3.4500   -1.3000    0.0000 C   0  0  0  0  0  0           0  0  0
    3.5292   -2.1167    0.0000 C   0  0  0  0  0  0           0  0  0
   -3.6750   -0.8167    0.0000 C   0  0  0  0  0  0           0  0  0
   -2.3583    3.2583    0.0000 C   0  0  0  0  0  0           0  0  0
   -3.7583    2.9583    0.0000 C   0  0  0  0  0  0           0  0  0
   -4.6333    0.2458    0.0000 C   0  0  0  0  0  0           0  0  0
   -3.1458    3.5083    0.0000 C   0  0  0  0  0  0           0  0  0
   -4.4708   -0.5667    0.0000 C   0  0  0  0  0  0           0  0  0
  2  1  2  0     0  0
  3  2  1  0     0  0
  4  1  1  0     0  0
  5  4  2  0     0  0
  6  7  1  0     0  0
  7  9  1  0     0  0
  8 15  2  0     0  0
  9  2  1  0     0  0
 10  6  1  0     0  0
 11  6  1  0     0  0
 12  4  1  0     0  0
 13 16  1  0     0  0
 14 23  1  0     0  0
 15 14  1  0     0  0
 16 12  1  0     0  0
 17 25  2  0     0  0
 18 11  2  0     0  0
 19 11  1  0     0  0
 20 10  2  0     0  0
 21 10  1  0     0  0
 22 13  1  0     0  0
 23 22  1  0     0  0
 24 14  2  0     0  0
 25 24  1  0     0  0
 26 21  2  0     0  0
 27 18  1  0     0  0
 28 19  2  0     0  0
 29 20  1  0     0  0
 30 28  1  0     0  0
 31 26  1  0     0  0
  3  5  1  0     0  0
 27 30  2  0     0  0
 29 31  2  0     0  0
 17  8  1  0     0  0
M  END