
          11280715232D 1   1.00000     0.00000     0

 47 53  0     0  0            999 V2000
    5.3417   -6.8500    0.0000 N   0  0  0  0  0  0           0  0  0
    4.8667   -5.6042    0.0000 N   0  0  3  0  0  0           0  0  0
    5.9875   -6.3292    0.0000 C   0  0  0  0  0  0           0  0  0
    5.6917   -5.5625    0.0000 N   0  0  0  0  0  0           0  0  0
    9.5417   -9.2167    0.0000 N   0  0  3  0  0  0           0  0  0
    1.1667   -3.4625    0.0000 N   0  0  3  0  0  0           0  0  0
    4.6542   -6.4000    0.0000 C   0  0  0  0  0  0           0  0  0
    1.9917   -3.3750    0.0000 N   0  0  0  0  0  0           0  0  0
    8.7917   -8.8792    0.0000 N   0  0  0  0  0  0           0  0  0
    2.1542   -2.5667    0.0000 N   0  0  0  0  0  0           0  0  0
    8.2417   -9.4917    0.0000 N   0  0  0  0  0  0           0  0  0
    1.4417   -2.1542    0.0000 N   0  0  0  0  0  0           0  0  0
    8.6500  -10.2042    0.0000 N   0  0  0  0  0  0           0  0  0
    0.7542   -4.1750    0.0000 C   0  0  0  0  0  0           0  0  0
   10.2542   -8.8042    0.0000 C   0  0  0  0  0  0           0  0  0
    0.8292   -2.7125    0.0000 C   0  0  0  0  0  0           0  0  0
    9.4542  -10.0375    0.0000 C   0  0  0  0  0  0           0  0  0
   10.2542   -7.9792    0.0000 C   0  0  0  0  0  0           0  0  0
    1.1667   -4.8875    0.0000 C   0  0  0  0  0  0           0  0  0
    4.4625   -4.8875    0.0000 C   0  0  0  0  0  0           0  0  0
    6.7000   -6.7417    0.0000 S   0  0  0  0  0  0           0  0  0
    1.9917   -4.8875    0.0000 C   0  0  0  0  0  0           0  0  0
    9.5417   -7.5667    0.0000 C   0  0  0  0  0  0           0  0  0
    2.3917   -4.1750    0.0000 C   0  0  0  0  0  0           0  0  0
    8.8292   -7.9750    0.0000 C   0  0  0  0  0  0           0  0  0
    2.4000   -5.6042    0.0000 C   0  0  0  0  0  0           0  0  0
    9.5417   -6.7375    0.0000 C   0  0  0  0  0  0           0  0  0
    3.6375   -4.8875    0.0000 C   0  0  0  0  0  0           0  0  0
    7.4125   -6.3292    0.0000 C   0  0  0  0  0  0           0  0  0
    8.1250   -6.7417    0.0000 C   0  0  0  0  0  0           0  0  0
    3.2167   -5.6042    0.0000 C   0  0  0  0  0  0           0  0  0
    3.2167   -4.1667    0.0000 C   0  0  0  0  0  0           0  0  0
    8.1167   -7.5625    0.0000 C   0  0  0  0  0  0           0  0  0
    8.8292   -6.3292    0.0000 C   0  0  0  0  0  0           0  0  0
    3.8792   -6.6917    0.0000 C   0  0  0  0  0  0           0  0  0
   10.9667   -9.2167    0.0000 C   0  0  0  0  0  0           0  0  0
   -0.0708   -4.1792    0.0000 C   0  0  0  0  0  0           0  0  0
   10.9667   -7.5667    0.0000 C   0  0  0  0  0  0           0  0  0
    0.7542   -5.6000    0.0000 C   0  0  0  0  0  0           0  0  0
    3.7500   -7.5042    0.0000 C   0  0  0  0  0  0           0  0  0
    2.7292   -8.5125    0.0000 C   0  0  0  0  0  0           0  0  0
    2.9500   -7.7167    0.0000 C   0  0  0  0  0  0           0  0  0
   11.6792   -7.9750    0.0000 C   0  0  0  0  0  0           0  0  0
   -0.0708   -5.6000    0.0000 C   0  0  0  0  0  0           0  0  0
   -0.4833   -4.8917    0.0000 C   0  0  0  0  0  0           0  0  0
   11.6875   -8.8042    0.0000 C   0  0  0  0  0  0           0  0  0
    1.9042   -8.5042    0.0000 C   0  0  0  0  0  0           0  0  0
  2  7  1  0     0  0
  3  1  1  0     0  0
  4  3  2  0     0  0
  5 15  1  0     0  0
  6 14  1  0     0  0
  7  1  2  0     0  0
  8  6  1  0     0  0
  9  5  1  0     0  0
 10  8  2  0     0  0
 11  9  2  0     0  0
 12 16  2  0     0  0
 13 17  2  0     0  0
 14 19  2  0     0  0
 15 18  2  0     0  0
 16  6  1  0     0  0
 17  5  1  0     0  0
 18 23  1  0     0  0
 19 22  1  0     0  0
 20  2  1  0     0  0
 21  3  1  0     0  0
 22 24  1  0     0  0
 23 27  1  0     0  0
 24 32  2  0     0  0
 25 33  1  0     0  0
 26 31  1  0     0  0
 27 34  2  0     0  0
 28 20  1  0     0  0
 29 21  1  0     0  0
 30 29  1  0     0  0
 31 28  2  0     0  0
 32 28  1  0     0  0
 33 30  2  0     0  0
 34 30  1  0     0  0
 35  7  1  0     0  0
 36 15  1  0     0  0
 37 14  1  0     0  0
 38 18  1  0     0  0
 39 19  1  0     0  0
 40 35  1  0     0  0
 41 42  1  0     0  0
 42 40  1  0     0  0
 43 38  2  0     0  0
 44 39  2  0     0  0
 45 44  1  0     0  0
 46 43  1  0     0  0
 47 41  1  0     0  0
  2  4  1  0     0  0
 26 22  2  0     0  0
 23 25  2  0     0  0
 45 37  2  0     0  0
 46 36  2  0     0  0
 12 10  1  0     0  0
 13 11  1  0     0  0
M  END