
  SciTegic01161211242D

 46 49  0  0  0  0            999 V2000
    1.4000   -4.1958    0.0000 C   0  0
    0.5125   -5.1958    0.0000 C   0  0
    1.3208   -5.0208    0.0000 S   0  0
    2.8292   -4.1917    0.0000 C   0  0
    2.1125   -3.7792    0.0000 N   0  0
    7.8208   -3.7625    0.0000 N   0  3
    0.1833   -5.9500    0.0000 C   0  0
    4.9708   -3.7667    0.0000 C   0  0
    3.5417   -3.7750    0.0000 N   0  0
    4.2583   -4.1833    0.0000 C   0  0  1  0  0  0
    0.0958   -4.4833    0.0000 C   0  0
    5.6875   -4.1750    0.0000 N   0  0
    0.6458   -3.8667    0.0000 C   0  0
   -0.6375   -6.0417    0.0000 O   0  0
    2.8333   -5.0167    0.0000 O   0  0
    0.6708   -6.6167    0.0000 O   0  0
    4.9667   -2.9417    0.0000 O   0  0
    7.1125   -4.1750    0.0000 C   0  0
    4.2625   -5.0083    0.0000 C   0  0
    8.5375   -3.3500    0.0000 C   0  0
    6.4000   -3.7583    0.0000 C   0  0  2  0  0  0
    4.9792   -5.4167    0.0000 C   0  0
    9.2500   -3.7667    0.0000 C   0  0
    7.8208   -2.9333    0.0000 C   0  0
   10.6750   -4.6000    0.0000 C   0  0
    6.4083   -6.2333    0.0000 C   0  0
    7.8167   -4.5833    0.0000 C   0  0
   -0.9708   -6.7958    0.0000 C   0  0
    5.6875   -5.0000    0.0000 C   0  0
    4.9792   -6.2417    0.0000 C   0  0
    9.2458   -4.5917    0.0000 C   0  0
    9.9625   -3.3583    0.0000 C   0  0
    9.9542   -5.0083    0.0000 C   0  0
    5.6958   -6.6500    0.0000 C   0  0
   10.6750   -3.7708    0.0000 C   0  0
    6.4042   -5.4042    0.0000 C   0  0
    7.1250   -6.6417    0.0000 O   0  0
   11.3875   -5.0125    0.0000 O   0  0
    7.1042   -2.5250    0.0000 C   0  0
    6.3875   -2.9375    0.0000 C   0  0
   -1.7917   -6.8833    0.0000 C   0  0
   -0.4792   -7.4583    0.0000 C   0  0
   -0.8167   -8.2167    0.0000 C   0  0
   -2.1250   -7.6375    0.0000 C   0  0
   -1.6375   -8.3042    0.0000 C   0  0
    8.4833   -6.4000    0.0000 I   0  5
  2  3  1  0
  3  1  1  0
  4  5  1  0
  5  1  1  0
  6 18  1  0
  7  2  1  0
  8 10  1  0
  9  4  1  0
 10  9  1  0
 11 13  1  0
 12  8  1  0
 13  1  2  0
 14  7  1  0
 15  4  2  0
 16  7  2  0
 17  8  2  0
 18 21  1  0
 10 19  1  6
 20  6  1  0
 21 12  1  1
 22 19  1  0
 23 20  1  0
 24 39  1  0
 25 35  1  0
 26 36  1  0
 27  6  1  0
 28 14  1  0
 29 22  1  0
 30 22  2  0
 31 23  2  0
 32 23  1  0
 33 31  1  0
 34 30  1  0
 35 32  2  0
 36 29  2  0
 37 26  1  0
 38 25  1  0
 39 40  1  0
 40 21  1  0
 41 28  1  0
 42 28  1  0
 43 42  1  0
 44 41  1  0
 45 43  1  0
  2 11  2  0
 45 44  1  0
 26 34  2  0
 24  6  1  0
 25 33  2  0
M  CHG  2   6   1  46  -1
M  END