
  SciTegic06011109532D

 58 64  0  0  0  0            999 V2000
    2.0361   -8.6791    0.0000 C   0  0
    2.0360   -9.5053    0.0000 C   0  0
    2.7503   -9.9166    0.0000 C   0  0
    2.7463   -8.2660    0.0000 C   0  0
    3.4611   -8.6736    0.0000 C   0  0
    3.4641   -9.5023    0.0000 C   0  0
    4.1821   -9.9124    0.0000 C   0  0
    4.8977   -9.4948    0.0000 N   0  0
    4.8907   -8.6629    0.0000 C   0  0
    4.1721   -8.2567    0.0000 N   0  0
    4.1860  -10.7373    0.0000 N   0  0
    4.9023  -11.1465    0.0000 S   0  0
    5.6149  -10.7307    0.0000 C   0  0
    4.4833  -11.8583    0.0000 O   0  0
    5.3083  -11.8583    0.0000 O   0  0
    6.3284  -11.1441    0.0000 C   0  0
    7.0404  -10.7289    0.0000 C   0  0
    7.0370   -9.9030    0.0000 C   0  0
    6.3156   -9.4941    0.0000 C   0  0
    5.6065   -9.9116    0.0000 C   0  0
    7.7490   -9.4863    0.0000 N   0  0
    8.4632   -9.8873    0.0000 C   0  0  1  0  0  0
    9.1759   -9.4717    0.0000 C   0  0
    9.1722   -8.6467    0.0000 S   0  0
    9.8849   -8.2310    0.0000 C   0  0
   10.5983   -8.6437    0.0000 C   0  0
   11.3105   -8.2287    0.0000 C   0  0
   11.3073   -7.4029    0.0000 C   0  0
   10.5860   -6.9937    0.0000 C   0  0
    9.8768   -7.4110    0.0000 C   0  0
    8.4700  -10.7123    0.0000 C   0  0
    9.1878  -11.1189    0.0000 C   0  0
    9.1946  -11.9439    0.0000 N   0  0
    6.3097   -8.6665    0.0000 N   0  3
    5.5918   -8.2599    0.0000 O   0  0
    7.0207   -8.2482    0.0000 O   0  5
    1.3165   -8.2689    0.0000 N   0  0
    1.3172   -7.4430    0.0000 C   0  0
    0.6062   -7.0317    0.0000 C   0  0
   -0.1101   -7.4418    0.0000 N   0  0
   -0.1107   -8.2678    0.0000 C   0  0
    0.6048   -8.6836    0.0000 C   0  0
   -0.8236   -7.0277    0.0000 C   0  0
   -0.8218   -6.2027    0.0000 C   0  0
   -0.1090   -5.7906    0.0000 C   0  0
   -0.1068   -4.9664    0.0000 C   0  0
   -0.8209   -4.5515    0.0000 C   0  0
   -1.5387   -4.9668    0.0000 C   0  0
   -1.5373   -5.7897    0.0000 C   0  0
   -2.2490   -6.2042    0.0000 C   0  0
   -2.9609   -5.7906    0.0000 C   0  0
   -3.6723   -6.2030    0.0000 C   0  0
   -3.6725   -7.0289    0.0000 C   0  0
   -2.9507   -7.4406    0.0000 C   0  0
   -2.2469   -7.0258    0.0000 C   0  0
   -4.3860   -7.4431    0.0000 Cl  0  0
    8.4835  -12.3622    0.0000 C   0  0
    9.9124  -12.3505    0.0000 C   0  0
 27 28  2  0
 12 13  1  0
 28 29  1  0
  5  6  1  0
 29 30  2  0
 30 25  1  0
 12 14  2  0
 22 31  1  1
  2  3  1  0
 31 32  1  0
 12 15  2  0
 32 33  1  0
  6  7  1  0
 13 16  2  0
  3  6  2  0
 34 35  2  0
 34 36  1  0
 19 34  1  0
 37 38  1  0
 16 17  1  0
  7  8  2  0
 17 18  2  0
 18 19  1  0
  8  9  1  0
 37 42  1  0
 38 39  1  0
 39 40  1  0
 40 41  1  0
 41 42  1  0
  1 37  1  0
 19 20  2  0
 40 43  1  0
 20 13  1  0
 43 44  1  0
  5  4  2  0
 44 45  2  0
 18 21  1  0
 45 46  1  0
  9 10  2  0
 46 47  2  0
 21 22  1  0
 47 48  1  0
 10  5  1  0
 48 49  2  0
 49 44  1  0
 22 23  1  0
  4  1  1  0
 50 51  2  0
 23 24  1  0
 51 52  1  0
  7 11  1  0
 52 53  2  0
 24 25  1  0
 53 54  1  0
  1  2  2  0
 54 55  2  0
 55 50  1  0
 49 50  1  0
 25 26  2  0
 53 56  1  0
 11 12  1  0
 33 57  1  0
 26 27  1  0
 33 58  1  0
M  CHG  2  34   1  36  -1
M  END