
  SciTegic01181116592D

 25 28  0  0  0  0            999 V2000
    1.7512   -3.6483    0.0000 C   0  0
    2.4847   -3.3101    0.0000 N   0  0
    1.8998   -2.9020    0.0000 C   0  0
    3.3072   -3.6590    0.0000 C   0  0  2  0  0  0
    2.3477   -2.2892    0.0000 C   0  0
    2.6243   -2.5769    0.0000 C   0  0
    3.4110   -2.9195    0.0000 C   0  0  1  0  0  0
    2.5865   -1.6955    0.0000 C   0  0
    4.1315   -2.5162    0.0000 N   0  0
    3.7139   -4.3774    0.0000 C   0  0
    3.2951   -5.0890    0.0000 C   0  0
    2.4702   -5.0783    0.0000 C   0  0
    2.0515   -5.7889    0.0000 C   0  0
    2.4583   -6.5084    0.0000 C   0  0
    3.2882   -6.5128    0.0000 N   0  0
    3.7032   -5.8015    0.0000 C   0  0
    4.8409   -2.9384    0.0000 C   0  0
    5.5614   -2.5352    0.0000 O   0  0
    4.8300   -3.7641    0.0000 O   0  0
    6.2708   -2.9575    0.0000 C   0  0
    6.2577   -3.7830    0.0000 C   0  0
    6.9663   -4.2052    0.0000 C   0  0
    7.6878   -3.8019    0.0000 C   0  0
    7.6962   -2.9721    0.0000 C   0  0
    6.9868   -2.5536    0.0000 C   0  0
 11 12  2  0
  2  5  1  0
 12 13  1  0
  3  6  1  0
 13 14  2  0
  4  7  1  0
 14 15  1  0
  5  8  1  0
 15 16  2  0
 16 11  1  0
  6  7  1  0
  9 17  1  0
  6  8  1  0
 17 18  1  0
 17 19  2  0
  7  9  1  1
 18 20  1  0
  1  2  1  0
 20 21  2  0
  4 10  1  6
 21 22  1  0
  1  3  1  0
 22 23  2  0
 10 11  1  0
 23 24  1  0
  2  4  1  0
 24 25  2  0
 25 20  1  0
M  END