
  CDK    9/16/09,9:46

 22 22  0  0  0  0  0  0  0  0999 V2000
    0.8792   -3.5875    0.0000 C   0  0  0  0  0  0  0  0  0  0  0  0
    0.8792   -4.4125    0.0000 C   0  0  0  0  0  0  0  0  0  0  0  0
    1.5912   -4.8209    0.0000 C   0  0  0  0  0  0  0  0  0  0  0  0
    2.3032   -4.4125    0.0000 C   0  0  0  0  0  0  0  0  0  0  0  0
    2.3032   -3.5875    0.0000 C   0  0  0  0  0  0  0  0  0  0  0  0
    1.5912   -3.1709    0.0000 C   0  0  0  0  0  0  0  0  0  0  0  0
    3.0171   -4.8261    0.0000 C   0  0  0  0  0  0  0  0  0  0  0  0
    3.0189   -3.1771    0.0000 C   0  0  0  0  0  0  0  0  0  0  0  0
    0.8708   -2.7584    0.0000 C   0  0  0  0  0  0  0  0  0  0  0  0
    2.1708   -2.5834    0.0000 C   0  0  0  0  0  0  0  0  0  0  0  0
    3.7321   -3.5917    0.0000 C   0  0  0  0  0  0  0  0  0  0  0  0
    4.4478   -3.1813    0.0000 C   0  0  0  0  0  0  0  0  0  0  0  0
    5.1611   -3.5959    0.0000 C   0  0  0  0  0  0  0  0  0  0  0  0
    4.4502   -2.3563    0.0000 C   0  0  0  0  0  0  0  0  0  0  0  0
    5.1441   -4.4231    0.0000 C   0  0  0  0  0  0  0  0  0  0  0  0
    4.4233   -4.8244    0.0000 C   0  0  0  0  0  0  0  0  0  0  0  0
    4.4106   -5.6494    0.0000 C   0  0  0  0  0  0  0  0  0  0  0  0
    3.6898   -6.0507    0.0000 C   0  0  0  0  0  0  0  0  0  0  0  0
    5.1186   -6.0729    0.0000 C   0  0  0  0  0  0  0  0  0  0  0  0
    3.6770   -6.8756    0.0000 C   0  0  0  0  0  0  0  0  0  0  0  0
    2.9556   -7.2786    0.0000 O   0  0  0  0  0  0  0  0  0  0  0  0
    4.3844   -7.3008    0.0000 O   0  0  0  0  0  0  0  0  0  0  0  0
  8 11  2  0  0  0  0 
  4  5  2  0  0  0  0 
 11 12  1  0  0  0  0 
  5  6  1  0  0  0  0 
 12 13  2  0  0  0  0 
 12 14  1  0  0  0  0 
  4  7  1  0  0  0  0 
 13 15  1  0  0  0  0 
  1  2  1  0  0  0  0 
 15 16  2  0  0  0  0 
  5  8  1  0  0  0  0 
 16 17  1  0  0  0  0 
  1  6  1  0  0  0  0 
 17 18  2  0  0  0  0 
  6  9  1  0  0  0  0 
 17 19  1  0  0  0  0 
  2  3  1  0  0  0  0 
 18 20  1  0  0  0  0 
  6 10  1  0  0  0  0 
  3  4  1  0  0  0  0 
 20 21  1  0  0  0  0 
 20 22  2  0  0  0  0 
M  END