
          11280715152D 1   1.00000     0.00000     0

 36 39  0     1  0            999 V2000
    0.7917   -0.2042    0.0000 C   0  0  1  0  0  0           0  0  0
   -0.6458   -3.5000    0.0000 C   0  0  0  0  0  0           0  0  0
    0.0667   -3.9125    0.0000 C   0  0  0  0  0  0           0  0  0
    0.7917   -1.0292    0.0000 C   0  0  2  0  0  0           0  0  0
    1.5667    0.0458    0.0000 C   0  0  3  0  0  0           0  0  0
   -0.6458   -2.6750    0.0000 C   0  0  0  0  0  0           0  0  0
    0.0667   -4.7375    0.0000 C   0  0  2  0  0  0           0  0  0
    0.0750   -1.4417    0.0000 C   0  0  0  0  0  0           0  0  0
    0.0750   -2.2667    0.0000 C   0  0  0  0  0  0           0  0  0
    1.5750   -1.2792    0.0000 C   0  0  0  0  0  0           0  0  0
    2.0542   -0.6167    0.0000 C   0  0  0  0  0  0           0  0  0
   -0.6458   -5.1500    0.0000 C   0  0  0  0  0  0           0  0  0
   -1.3500   -3.9125    0.0000 C   0  0  0  0  0  0           0  0  0
    6.4125    1.0833    0.0000 C   0  0  3  0  0  0           0  0  0
    5.6042    0.9083    0.0000 C   0  0  0  0  0  0           0  0  0
   -1.3500   -4.7375    0.0000 C   0  0  1  0  0  0           0  0  0
    0.7875   -3.5000    0.0000 C   0  0  0  0  0  0           0  0  0
    3.1875    0.3958    0.0000 S   0  0  0  0  0  0           0  0  0
    1.8250    0.8333    0.0000 C   0  0  2  0  0  0           0  0  0
    2.6292    1.0083    0.0000 C   0  0  0  0  0  0           0  0  0
    5.3500    0.1208    0.0000 C   0  0  0  0  0  0           0  0  0
    5.0417    1.5208    0.0000 C   0  0  0  0  0  0           0  0  0
    3.9917    0.5625    0.0000 C   0  0  0  0  0  0           0  0  0
    0.0792    0.2083    0.0000 C   0  0  0  0  0  0           0  0  0
    0.7875   -5.1500    0.0000 O   0  0  0  0  0  0           0  0  0
    0.7917    0.6208    0.0000 C   0  0  0  0  0  0           0  0  0
    6.3667    0.2583    0.0000 O   0  0  0  0  0  0           0  0  0
    4.5417   -0.0500    0.0000 C   0  0  0  0  0  0           0  0  0
    4.2417    1.3458    0.0000 C   0  0  0  0  0  0           0  0  0
   -2.0708   -5.1500    0.0000 O   0  0  0  0  0  0           0  0  0
   -0.6375   -1.0292    0.0000 C   0  0  0  0  0  0           0  0  0
   -0.6333   -0.2042    0.0000 C   0  0  0  0  0  0           0  0  0
    6.9667    0.4708    0.0000 C   0  0  0  0  0  0           0  0  0
    6.6625    1.8708    0.0000 C   0  0  0  0  0  0           0  0  0
    1.2750    1.4458    0.0000 C   0  0  0  0  0  0           0  0  0
    0.7917   -1.8542    0.0000 H   0  0  0  0  0  0           0  0  0
  2  6  2  0     0  0
  3  2  1  0     0  0
  4  1  1  0     0  0
  5  1  1  0     0  0
  6  9  1  0     0  0
  7  3  1  0     0  0
  8  4  1  0     0  0
  9  8  2  0     0  0
 10  4  1  0     0  0
 11  5  1  0     0  0
 12 16  1  0     0  0
 13  2  1  0     0  0
 14 15  1  0     0  0
 15 22  1  0     0  0
 16 13  1  0     0  0
 17  3  2  0     0  0
 18 20  1  0     0  0
 19  5  1  0     0  0
 20 19  1  0     0  0
 21 28  1  0     0  0
 22 29  2  0     0  0
 23 18  1  0     0  0
 24  1  1  0     0  0
  7 25  1  1     0  0
  1 26  1  1     0  0
 27 14  1  0     0  0
 28 23  2  0     0  0
 29 23  1  0     0  0
 16 30  1  6     0  0
 31 32  1  0     0  0
 32 24  1  0     0  0
 33 14  1  0     0  0
 34 14  1  0     0  0
 19 35  1  1     0  0
  4 36  1  6     0  0
 10 11  1  0     0  0
  8 31  1  0     0  0
 21 15  2  0     0  0
 12  7  1  0     0  0
M  END