
  SciTegic10311316212D

 27 30  0  0  0  0            999 V2000
   18.4927   -7.5074    0.0000 C   0  0
   18.4915   -8.3269    0.0000 C   0  0
   19.1996   -8.7359    0.0000 C   0  0
   19.1978   -7.0985    0.0000 C   0  0
   19.9064   -7.5038    0.0000 C   0  0
   19.9067   -8.3224    0.0000 C   0  0
   20.6853   -8.5752    0.0000 S   0  0
   21.1664   -7.9127    0.0000 C   0  0
   20.6849   -7.2506    0.0000 C   0  0
   17.7881   -8.7341    0.0000 N   0  0
   17.0418   -8.4011    0.0000 C   0  0
   16.4945   -9.0080    0.0000 N   0  0
   16.9026   -9.7161    0.0000 N   0  0
   17.7020   -9.5467    0.0000 C   0  0
   18.3076  -10.0907    0.0000 C   0  0
   18.1356  -10.8907    0.0000 C   0  0
   18.7417  -11.4377    0.0000 C   0  0
   19.5200  -11.1859    0.0000 C   0  0
   19.6888  -10.3820    0.0000 C   0  0
   19.0814   -9.8385    0.0000 C   0  0
   16.8725   -7.6017    0.0000 S   0  0
   21.9815   -7.9103    0.0000 C   0  0
   22.3903   -8.6178    0.0000 O   0  0
   22.3898   -7.2024    0.0000 O   0  0
   20.9372   -6.4734    0.0000 Cl  0  0
   20.4653  -10.1273    0.0000 Cl  0  0
   20.1277  -11.7324    0.0000 Cl  0  0
  1  2  2  0
  2  3  1  0
  3  6  2  0
  5  4  2  0
  4  1  1  0
  5  6  1  0
  6  7  1  0
  7  8  1  0
  8  9  2  0
  9  5  1  0
 10 11  1  0
 11 12  2  0
 12 13  1  0
 13 14  2  0
 14 10  1  0
  2 10  1  0
 15 16  2  0
 16 17  1  0
 17 18  2  0
 18 19  1  0
 19 20  2  0
 20 15  1  0
 14 15  1  0
 11 21  1  0
 22 23  1  0
 22 24  2  0
  8 22  1  0
  9 25  1  0
 19 26  1  0
 18 27  1  0
M  END