
  CDK    9/16/09,9:58

 22 25  0  0  0  0  0  0  0  0999 V2000
   11.5392   -8.2637    0.0000 C   0  0  0  0  0  0  0  0  0  0  0  0
   11.5380   -9.0913    0.0000 C   0  0  0  0  0  0  0  0  0  0  0  0
   12.2509   -9.5042    0.0000 C   0  0  0  0  0  0  0  0  0  0  0  0
   12.2489   -7.8509    0.0000 C   0  0  0  0  0  0  0  0  0  0  0  0
   12.9671   -8.2597    0.0000 C   0  0  0  0  0  0  0  0  0  0  0  0
   12.9676   -9.0866    0.0000 C   0  0  0  0  0  0  0  0  0  0  0  0
   13.7544   -9.3417    0.0000 N   0  0  0  0  0  0  0  0  0  0  0  0
   14.2401   -8.6724    0.0000 C   0  0  0  0  0  0  0  0  0  0  0  0
   13.7535   -8.0037    0.0000 N   0  0  0  0  0  0  0  0  0  0  0  0
   15.0651   -8.6717    0.0000 N   0  0  0  0  0  0  0  0  0  0  0  0
   15.4781   -9.3859    0.0000 C   0  0  0  0  0  0  0  0  0  0  0  0
   15.0657  -10.0971    0.0000 C   0  0  0  0  0  0  0  0  0  0  0  0
   15.4751  -10.8091    0.0000 C   0  0  0  0  0  0  0  0  0  0  0  0
   16.3005  -10.8129    0.0000 C   0  0  0  0  0  0  0  0  0  0  0  0
   16.3035   -9.3799    0.0000 C   0  0  0  0  0  0  0  0  0  0  0  0
   16.7116  -10.0967    0.0000 C   0  0  0  0  0  0  0  0  0  0  0  0
   17.5344  -10.1007    0.0000 C   0  0  0  0  0  0  0  0  0  0  0  0
   17.9502   -9.3887    0.0000 C   0  0  0  0  0  0  0  0  0  0  0  0
   17.5371   -8.6712    0.0000 C   0  0  0  0  0  0  0  0  0  0  0  0
   16.7157   -8.6707    0.0000 C   0  0  0  0  0  0  0  0  0  0  0  0
   17.9503   -7.9572    0.0000 Cl  0  0  0  0  0  0  0  0  0  0  0  0
   18.7752   -9.3912    0.0000 Cl  0  0  0  0  0  0  0  0  0  0  0  0
  5  6  1  0  0  0  0 
 10 11  1  0  0  0  0 
 11 12  1  0  0  0  0 
  2  3  1  0  0  0  0 
  3  6  2  0  0  0  0 
 11 15  1  0  0  0  0 
 12 13  1  0  0  0  0 
 13 14  1  0  0  0  0 
 14 16  1  0  0  0  0 
  1  2  2  0  0  0  0 
  5  4  2  0  0  0  0 
 15 16  2  0  0  0  0 
  6  7  1  0  0  0  0 
 16 17  1  0  0  0  0 
  7  8  1  0  0  0  0 
 17 18  2  0  0  0  0 
  8  9  2  0  0  0  0 
 18 19  1  0  0  0  0 
  9  5  1  0  0  0  0 
 19 20  2  0  0  0  0 
 20 15  1  0  0  0  0 
  4  1  1  0  0  0  0 
 19 21  1  0  0  0  0 
  8 10  1  0  0  0  0 
 18 22  1  0  0  0  0 
M  END