
          11290714382D 1   1.00000     0.00000     0

 60 64  0     1  0            999 V2000
    2.8931  -16.2668    0.0000 C   0  0  0  0  0  0           0  0  0
    3.6173  -16.6618    0.0000 C   0  0  0  0  0  0           0  0  0
    4.3168  -16.2323    0.0000 N   0  0  3  0  0  0           0  0  0
    4.2992  -15.4117    0.0000 C   0  0  0  0  0  0           0  0  0
    3.5750  -15.0166    0.0000 C   0  0  0  0  0  0           0  0  0
    2.8682  -15.4422    0.0000 C   0  0  3  0  0  0           0  0  0
    2.8419  -14.6204    0.0000 C   0  0  0  0  0  0           0  0  0
    2.1606  -15.8663    0.0000 N   0  0  0  0  0  0           0  0  0
    3.5427  -14.1852    0.0000 O   0  0  0  0  0  0           0  0  0
    2.1145  -14.2310    0.0000 N   0  0  0  0  0  0           0  0  0
    5.0410  -16.6273    0.0000 C   0  0  0  0  0  0           0  0  0
    2.0881  -13.4064    0.0000 C   0  0  2  0  0  0           0  0  0
    1.3607  -13.0171    0.0000 C   0  0  0  0  0  0           0  0  0
    2.7889  -12.9712    0.0000 C   0  0  0  0  0  0           0  0  0
    2.7625  -12.1467    0.0000 C   0  0  0  0  0  0           0  0  0
    3.4634  -11.7115    0.0000 N   0  0  0  0  0  0           0  0  0
    2.0352  -11.7573    0.0000 O   0  0  0  0  0  0           0  0  0
    1.3343  -12.1925    0.0000 O   0  0  0  0  0  0           0  0  0
    0.6599  -13.4523    0.0000 N   0  0  0  0  0  0           0  0  0
   -0.0675  -13.0629    0.0000 C   0  0  0  0  0  0           0  0  0
   -0.7683  -13.4981    0.0000 C   0  0  0  0  0  0           0  0  0
   -1.4957  -13.1087    0.0000 C   0  0  0  0  0  0           0  0  0
   -2.1965  -13.5439    0.0000 C   0  0  0  0  0  0           0  0  0
   -2.9211  -13.1520    0.0000 C   0  0  0  0  0  0           0  0  0
   -2.8631  -14.8010    0.0000 C   0  0  0  0  0  0           0  0  0
   -2.1657  -14.3642    0.0000 C   0  0  0  0  0  0           0  0  0
   -3.5955  -14.4119    0.0000 C   0  0  0  0  0  0           0  0  0
   -3.6190  -13.5879    0.0000 C   0  0  0  0  0  0           0  0  0
   -4.3432  -13.1980    0.0000 C   0  0  0  0  0  0           0  0  0
   -5.0445  -13.6310    0.0000 C   0  0  0  0  0  0           0  0  0
   -5.0168  -14.4581    0.0000 C   0  0  0  0  0  0           0  0  0
   -4.2921  -14.8443    0.0000 C   0  0  0  0  0  0           0  0  0
    1.4395  -15.4656    0.0000 C   0  0  0  0  0  0           0  0  0
    0.7319  -15.8898    0.0000 C   0  0  2  0  0  0           0  0  0
    1.4259  -14.6407    0.0000 O   0  0  0  0  0  0           0  0  0
    0.0107  -15.4891    0.0000 C   0  0  0  0  0  0           0  0  0
   -0.6969  -15.9133    0.0000 C   0  0  0  0  0  0           0  0  0
   -1.4174  -15.5109    0.0000 C   0  0  0  0  0  0           0  0  0
   -2.1246  -15.9344    0.0000 C   0  0  0  0  0  0           0  0  0
   -2.1114  -16.7601    0.0000 C   0  0  0  0  0  0           0  0  0
   -1.3853  -17.1606    0.0000 C   0  0  0  0  0  0           0  0  0
   -0.6811  -16.7348    0.0000 C   0  0  0  0  0  0           0  0  0
    0.7454  -16.7147    0.0000 C   0  0  0  0  0  0           0  0  0
    1.4666  -17.1154    0.0000 C   0  0  0  0  0  0           0  0  0
    1.4834  -17.9410    0.0000 O   0  0  0  0  0  0           0  0  0
    2.1775  -16.6919    0.0000 O   0  0  0  0  0  0           0  0  0
   -2.8185  -17.1852    0.0000 C   0  0  0  0  0  0           0  0  0
   -3.5402  -16.7855    0.0000 P   0  0  3  0  0  0           0  0  0
   -4.2583  -16.3708    0.0000 O   0  0  0  0  0  0           0  0  0
   -3.9463  -17.5036    0.0000 O   0  0  0  0  0  0           0  0  0
   -3.1302  -16.0696    0.0000 O   0  0  0  0  0  0           0  0  0
    5.0610  -17.4521    0.0000 O   0  0  0  0  0  0           0  0  0
    5.7453  -16.1976    0.0000 O   0  0  0  0  0  0           0  0  0
    6.4695  -16.5927    0.0000 C   0  0  0  0  0  0           0  0  0
    7.1738  -16.1630    0.0000 C   0  0  0  0  0  0           0  0  0
    7.8978  -16.5597    0.0000 C   0  0  0  0  0  0           0  0  0
    8.6016  -16.1307    0.0000 C   0  0  0  0  0  0           0  0  0
    8.5820  -15.3051    0.0000 C   0  0  0  0  0  0           0  0  0
    7.8528  -14.9103    0.0000 C   0  0  0  0  0  0           0  0  0
    7.1520  -15.3416    0.0000 C   0  0  0  0  0  0           0  0  0
  6  7  1  0     0  0
 29 30  1  0     0  0
 14 15  1  0     0  0
 30 31  2  0     0  0
  1  2  1  0     0  0
 31 32  1  0     0  0
 32 27  2  0     0  0
 15 16  1  0     0  0
  8 33  1  0     0  0
  6  8  1  0     0  0
 33 34  1  0     0  0
 15 17  2  0     0  0
 33 35  2  0     0  0
  1  6  1  0     0  0
 34 36  1  0     0  0
 13 18  2  0     0  0
 36 37  1  0     0  0
  7  9  2  0     0  0
 37 38  2  0     0  0
 13 19  1  0     0  0
 38 39  1  0     0  0
  2  3  1  0     0  0
 39 40  2  0     0  0
 19 20  1  0     0  0
 40 41  1  0     0  0
  7 10  1  0     0  0
 41 42  2  0     0  0
 42 37  1  0     0  0
 20 21  1  0     0  0
 34 43  1  1     0  0
  3  4  1  0     0  0
 43 44  1  0     0  0
 21 22  1  0     0  0
  3 11  1  0     0  0
 44 45  1  0     0  0
 44 46  2  0     0  0
 22 23  1  0     0  0
 40 47  1  0     0  0
  4  5  1  0     0  0
 47 48  1  0     0  0
 23 24  2  0     0  0
 48 49  2  0     0  0
 24 28  1  0     0  0
 48 50  1  0     0  0
 10 12  1  0     0  0
 48 51  1  0     0  0
 27 25  1  0     0  0
 11 52  2  0     0  0
  5  6  1  0     0  0
 11 53  1  0     0  0
 25 26  2  0     0  0
 53 54  1  0     0  0
 26 23  1  0     0  0
 54 55  1  0     0  0
 12 13  1  0     0  0
 55 56  2  0     0  0
 56 57  1  0     0  0
 27 28  1  0     0  0
 57 58  2  0     0  0
 12 14  1  6     0  0
 58 59  1  0     0  0
 28 29  2  0     0  0
 59 60  2  0     0  0
 60 55  1  0     0  0
M  END