
          11280715192D 1   1.00000     0.00000     0

 46 49  0     1  0            999 V2000
    3.3500   -1.9167    0.0000 C   0  0  1  0  0  0           0  0  0
    4.0542   -2.3250    0.0000 C   0  0  1  0  0  0           0  0  0
    2.6292   -2.3250    0.0000 C   0  0  2  0  0  0           0  0  0
    2.6292   -3.1375    0.0000 C   0  0  1  0  0  0           0  0  0
    4.0542   -3.1375    0.0000 C   0  0  2  0  0  0           0  0  0
    3.3500   -1.0917    0.0000 C   0  0  0  0  0  0           0  0  0
    3.3500   -3.5500    0.0000 C   0  0  1  0  0  0           0  0  0
    4.7667   -1.9167    0.0000 O   0  0  0  0  0  0           0  0  0
    4.7667   -1.0917    0.0000 C   0  0  2  0  0  0           0  0  0
    4.0542   -4.7875    0.0000 C   0  0  0  0  0  0           0  0  0
    1.9250   -3.5500    0.0000 C   0  0  3  0  0  0           0  0  0
    4.0542   -0.6792    0.0000 C   0  0  0  0  0  0           0  0  0
    3.3500   -4.3792    0.0000 O   0  0  0  0  0  0           0  0  0
    1.9250   -1.9167    0.0000 C   0  0  2  0  0  0           0  0  0
    6.1917   -9.2917    0.0000 C   0  0  0  0  0  0           0  0  0
    2.6292   -0.6792    0.0000 O   0  0  0  0  0  0           0  0  0
    3.3542   -2.7042    0.0000 O   0  0  0  0  0  0           0  0  0
    5.5000   -1.5292    0.0000 C   0  0  0  0  0  0           0  0  0
    4.7667   -4.3792    0.0000 O   0  0  0  0  0  0           0  0  0
    1.2125   -3.1375    0.0000 C   0  0  0  0  0  0           0  0  0
    5.4917   -9.7042    0.0000 O   0  0  0  0  0  0           0  0  0
    1.2125   -2.3250    0.0000 C   0  0  0  0  0  0           0  0  0
    4.0542   -5.6042    0.0000 N   0  0  0  0  0  0           0  0  0
    4.0542   -1.5500    0.0000 C   0  0  0  0  0  0           0  0  0
    4.7667   -3.5500    0.0000 O   0  0  0  0  0  0           0  0  0
    2.6292   -1.5042    0.0000 C   0  0  0  0  0  0           0  0  0
    6.2875   -1.1625    0.0000 C   0  0  0  0  0  0           0  0  0
    6.1917   -8.4792    0.0000 N   0  0  0  0  0  0           0  0  0
    6.9042   -9.7042    0.0000 C   0  0  0  0  0  0           0  0  0
    9.0167  -11.7417    0.0000 C   0  0  0  0  0  0           0  0  0
    7.6125  -10.9292    0.0000 C   0  0  0  0  0  0           0  0  0
    1.9250   -1.0917    0.0000 O   0  0  0  0  0  0           0  0  0
    6.9042  -10.5167    0.0000 C   0  0  0  0  0  0           0  0  0
    8.3167  -12.1542    0.0000 C   0  0  0  0  0  0           0  0  0
    9.0167  -10.9250    0.0000 C   0  0  0  0  0  0           0  0  0
    7.6042  -11.7417    0.0000 C   0  0  0  0  0  0           0  0  0
    8.3125  -10.5167    0.0000 C   0  0  0  0  0  0           0  0  0
    9.7167  -12.1417    0.0000 O   0  0  0  0  0  0           0  0  0
    5.4792   -0.6750    0.0000 C   0  0  0  0  0  0           0  0  0
    1.3042   -4.0000    0.0000 C   0  0  0  0  0  0           0  0  0
    1.9250   -4.3792    0.0000 C   0  0  0  0  0  0           0  0  0
    4.7667   -6.0125    0.0000 C   0  0  0  0  0  0           0  0  0
    5.4792   -8.0667    0.0000 C   0  0  0  0  0  0           0  0  0
    5.4792   -7.2417    0.0000 C   0  0  0  0  0  0           0  0  0
    4.7667   -6.8292    0.0000 C   0  0  0  0  0  0           0  0  0
    2.6292   -3.9375    0.0000 H   0  0  0  0  0  0           0  0  0
  2  1  1  0     0  0
  3  1  1  0     0  0
  4  3  1  0     0  0
  5  2  1  0     0  0
  6  1  1  0     0  0
  7  4  1  0     0  0
  8  2  1  0     0  0
  9 12  1  0     0  0
 10 13  1  0     0  0
 11  4  1  0     0  0
 12  6  1  0     0  0
  7 13  1  1     0  0
 14  3  1  0     0  0
 15 28  1  0     0  0
 16  6  2  0     0  0
  1 17  1  6     0  0
  9 18  1  6     0  0
 19 10  2  0     0  0
 20 22  1  0     0  0
 21 15  2  0     0  0
 22 14  1  0     0  0
 23 10  1  0     0  0
  2 24  1  1     0  0
  5 25  1  1     0  0
  3 26  1  1     0  0
 27 18  2  0     0  0
 28 43  1  0     0  0
 29 15  1  0     0  0
 30 35  1  0     0  0
 31 33  1  0     0  0
 14 32  1  6     0  0
 33 29  1  0     0  0
 34 36  1  0     0  0
 35 37  2  0     0  0
 36 31  2  0     0  0
 37 31  1  0     0  0
 38 30  1  0     0  0
  9 39  1  1     0  0
 11 40  1  0     0  0
 11 41  1  0     0  0
 42 23  1  0     0  0
 43 44  1  0     0  0
 44 45  1  0     0  0
 45 42  1  0     0  0
  4 46  1  6     0  0
  9  8  1  0     0  0
  7  5  1  0     0  0
 20 11  1  0     0  0
 30 34  2  0     0  0
M  END