
          11280714452D 1   1.00000     0.00000     0

 18 18  0     0  0            999 V2000
    4.8292   -3.7667    0.0000 N   0  0  0  0  0  0           0  0  0
    4.2625   -3.9542    0.0000 C   0  0  0  0  0  0           0  0  0
    4.9542   -3.1792    0.0000 C   0  0  0  0  0  0           0  0  0
    8.3417   -2.8417    0.0000 N   0  0  0  0  0  0           0  0  0
    3.6917   -4.1417    0.0000 N   0  0  0  0  0  0           0  0  0
    8.0417   -3.7667    0.0000 N   0  0  0  0  0  0           0  0  0
    8.5292   -3.4167    0.0000 C   0  0  0  0  0  0           0  0  0
    7.5542   -3.4167    0.0000 C   0  0  0  0  0  0           0  0  0
    7.7417   -2.8417    0.0000 C   0  0  0  0  0  0           0  0  0
    5.5250   -2.9917    0.0000 N   0  0  0  0  0  0           0  0  0
    4.5042   -2.7792    0.0000 N   0  0  0  0  0  0           0  0  0
    2.9167   -2.7500    0.0000 S   0  0  0  0  0  0           0  0  0
    6.9875   -3.6042    0.0000 C   0  0  0  0  0  0           0  0  0
    3.9375   -2.9667    0.0000 C   0  0  0  0  0  0           0  0  0
    5.9667   -3.3917    0.0000 C   0  0  0  0  0  0           0  0  0
    3.4917   -2.5625    0.0000 C   0  0  0  0  0  0           0  0  0
    2.4792   -2.3417    0.0000 C   0  0  0  0  0  0           0  0  0
    6.5417   -3.2042    0.0000 C   0  0  0  0  0  0           0  0  0
  2  1  1  0     0  0
  3  1  1  0     0  0
  4  9  1  0     0  0
  5  2  3  0     0  0
  6  8  1  0     0  0
  7  6  2  0     0  0
  8 13  1  0     0  0
  9  8  2  0     0  0
 10  3  1  0     0  0
 11  3  2  0     0  0
 12 16  1  0     0  0
 13 18  1  0     0  0
 14 11  1  0     0  0
 15 10  1  0     0  0
 16 14  1  0     0  0
 17 12  1  0     0  0
 18 15  1  0     0  0
  4  7  1  0     0  0
M  END