
  SciTegic04191613082D

 16 16  0  0  0  0            999 V2000
    5.1993   -4.5021    0.0000 N   0  0
    5.1983   -3.0012    0.0000 C   0  0
    3.9013   -5.2556    0.0000 C   0  0
    3.9034   -6.4556    0.0000 C   0  0
    6.4990   -5.2525    0.0000 C   0  0
    6.5000   -6.7533    0.0000 C   0  0
    7.5392   -7.3533    0.0000 C   0  0
    3.8985   -2.2508    0.0000 C   0  0
    2.5988   -1.5004    0.0000 C   0  0
    1.2990   -0.7500    0.0000 C   0  0
    1.2990    0.7500    0.0000 C   0  0
    0.0000    1.5000    0.0000 C   0  0
   -1.2990    0.7500    0.0000 C   0  0
   -1.2990   -0.7500    0.0000 C   0  0
    0.0000   -1.5000    0.0000 C   0  0
   -2.3383    1.3500    0.0000 C   0  0
  1  2  1  0
  1  3  1  0
  3  4  1  0
  1  5  1  0
  5  6  1  0
  6  7  1  0
  2  8  1  0
  8  9  3  0
  9 10  1  0
 10 11  2  0
 11 12  1  0
 12 13  2  0
 13 14  1  0
 14 15  2  0
 15 10  1  0
 13 16  1  0
M  END