
  SciTegic12231509382D

  7  7  0  0  0  0            999 V2000
    0.7165   -0.1194    0.0000 N   0  0
    0.7165   -0.9444    0.0000 C   0  0
    1.4329   -1.3605    0.0000 C   0  0
    0.0000   -1.3605    0.0000 C   0  0
    1.4329   -2.1855    0.0000 C   0  0
    0.0000   -2.1855    0.0000 C   0  0
    0.7165   -2.5944    0.0000 C   0  0
  1  2  1  0
  2  3  2  0
  2  4  1  0
  3  5  1  0
  4  6  2  0
  5  7  2  0
  6  7  1  0
M  END