
  SciTegic11201309402D

 69 70  0  0  1  0            999 V2000
    1.1292   -5.0167    0.0000 N   0  0
    1.7167   -3.4917    0.0000 C   0  0
    6.3250   -4.4750    0.0000 N   0  0
    6.4042   -5.2917    0.0000 C   0  0  2  0  0  0
    4.7167   -2.6875    0.0000 N   0  0
    2.3292   -2.9375    0.0000 N   0  0
    1.2167   -5.8417    0.0000 C   0  0
    5.9875   -3.7167    0.0000 C   0  0
    7.2292   -5.3375    0.0000 C   0  0
    3.9042   -2.5167    0.0000 C   0  0
    1.3000   -4.2042    0.0000 C   0  0  2  0  0  0
    5.4292   -3.1000    0.0000 C   0  0  2  0  0  0
    2.1042   -7.2042    0.0000 N   0  0
    1.5542   -6.5917    0.0000 C   0  0  1  0  0  0
    7.6042   -6.0750    0.0000 N   0  0
    5.9542   -2.4542    0.0000 C   0  0
    3.0875   -2.6000    0.0000 C   0  0  1  0  0  0
    2.8167   -7.6250    0.0000 C   0  0
    8.8875   -5.4250    0.0000 C   0  0
   10.9875   -4.8167    0.0000 C   0  0
    9.9375   -1.1750    0.0000 C   0  0
    9.7125   -5.4667    0.0000 N   0  0
    6.7667   -2.5875    0.0000 C   0  0
   11.4417   -4.1167    0.0000 N   0  0
    5.8250   -6.8167    0.0000 S   0  0
    8.4375   -6.1167    0.0000 C   0  0
    5.2125   -7.3667    0.0000 S   0  0
   10.1625   -4.7750    0.0000 C   0  0  1  0  0  0
    3.2417   -0.4167    0.0000 C   0  0
   10.3917   -0.4792    0.0000 N   0  0
   12.7167   -3.4667    0.0000 C   0  0
    1.0667   -2.9667    0.0000 O   0  0
    0.4167   -6.0542    0.0000 O   0  0
    6.6792   -3.2667    0.0000 O   0  0
    3.9500   -1.6917    0.0000 O   0  0
    7.6875   -4.6417    0.0000 O   0  0
    6.2375   -6.1042    0.0000 C   0  0
    0.8625   -7.0417    0.0000 C   0  0
    3.6292   -7.7917    0.0000 C   0  0
   11.3625   -5.5542    0.0000 O   0  0
    8.5125   -4.6875    0.0000 O   0  0
    2.5292   -8.3917    0.0000 O   0  0
    7.2917   -1.9417    0.0000 O   0  0
    2.4417   -0.2042    0.0000 O   0  0
   12.3417   -2.7375    0.0000 O   0  0
    2.8667   -1.8042    0.0000 C   0  0
   10.3125   -1.9125    0.0000 N   0  0
   12.2667   -4.1667    0.0000 C   0  0
    9.1125   -1.1292    0.0000 N   0  0
    0.5292   -3.9125    0.0000 C   0  0  2  0  0  0
    7.4000   -3.1875    0.0000 N   0  0
    3.4542   -1.2167    0.0000 C   0  0
    3.8250    0.1708    0.0000 N   0  0
   13.5417   -3.5167    0.0000 O   0  0
    0.1167   -6.6667    0.0000 C   0  0
    4.4542   -7.7042    0.0000 C   0  0
    7.1542   -6.7667    0.0000 C   0  0
    9.7875   -4.0375    0.0000 C   0  0
    9.8625   -2.6042    0.0000 C   0  0
   -0.1125   -4.4292    0.0000 C   0  0
    0.4000   -3.0917    0.0000 C   0  0
    0.0792   -5.8417    0.0000 C   0  0
   -0.5708   -7.1167    0.0000 C   0  0
   10.2375   -3.3417    0.0000 C   0  0
   -0.8833   -4.1292    0.0000 C   0  0
   -1.3083   -6.7417    0.0000 C   0  0
   -0.6583   -5.4667    0.0000 C   0  0
   -1.3583   -5.9167    0.0000 C   0  0
    0.4229   -4.6844    0.0000 H   0  0
  2 11  1  0
  3  8  1  0
  4  3  1  0
  5 10  1  0
  6  2  1  0
  7  1  1  0
  8 12  1  0
  4  9  1  6
 10 17  1  0
 11  1  1  0
 12  5  1  0
 13 14  1  0
 14  7  1  0
 15  9  1  0
 12 16  1  1
 17  6  1  0
 18 13  1  0
 19 26  1  0
 20 28  1  0
 21 47  2  0
 22 19  1  0
 23 16  1  0
 24 20  1  0
 25 27  1  0
 26 15  1  0
 27 56  1  0
 28 22  1  1
 29 52  1  0
 30 21  1  0
 31 48  1  0
 32  2  2  0
 33  7  2  0
 34  8  2  0
 35 10  2  0
 36  9  2  0
 37 25  1  0
 14 38  1  1
 39 18  1  0
 40 20  2  0
 41 19  2  0
 42 18  2  0
 43 23  2  0
 44 29  2  0
 45 31  2  0
 17 46  1  6
 47 59  1  0
 48 24  1  0
 49 21  1  0
 11 50  1  0
 51 23  1  0
 52 46  1  0
 53 29  1  0
 54 31  1  0
 55 38  1  0
 56 39  1  0
 57 15  1  0
 28 58  1  0
 59 64  1  0
 60 50  1  0
 50 61  1  6
 62 55  2  0
 63 55  1  0
 64 58  1  0
 65 60  1  0
 66 63  2  0
 67 62  1  0
 68 66  1  0
 67 68  2  0
  4 37  1  0
 11 69  1  6
M  END