
          08180812492D 1   1.00000     0.00000     0

 32 35  0     0  0            999 V2000
   12.8444  -23.6000    0.0000 C   0  0  0  0  0  0           0  0  0
   12.8432  -24.4273    0.0000 C   0  0  0  0  0  0           0  0  0
   13.5581  -24.8402    0.0000 C   0  0  0  0  0  0           0  0  0
   14.2745  -24.4269    0.0000 C   0  0  0  0  0  0           0  0  0
   14.2716  -23.5963    0.0000 C   0  0  0  0  0  0           0  0  0
   13.5563  -23.1872    0.0000 C   0  0  0  0  0  0           0  0  0
   12.1286  -24.8390    0.0000 C   0  0  0  0  0  0           0  0  0
   11.3861  -24.4794    0.0000 N   0  0  3  0  0  0           0  0  0
   12.1278  -25.6643    0.0000 O   0  0  0  0  0  0           0  0  0
   14.9846  -23.1811    0.0000 O   0  0  0  0  0  0           0  0  0
   14.9814  -22.3561    0.0000 C   0  0  0  0  0  0           0  0  0
   15.6961  -21.9458    0.0000 C   0  0  0  0  0  0           0  0  0
   15.6934  -21.1216    0.0000 C   0  0  0  0  0  0           0  0  0
   14.9768  -20.7109    0.0000 C   0  0  0  0  0  0           0  0  0
   14.2615  -21.1306    0.0000 C   0  0  0  0  0  0           0  0  0
   14.2678  -21.9534    0.0000 C   0  0  0  0  0  0           0  0  0
   14.9896  -24.8382    0.0000 C   0  0  0  0  0  0           0  0  0
   15.7034  -24.4246    0.0000 N   0  0  0  0  0  0           0  0  0
   16.4186  -24.8360    0.0000 C   0  0  0  0  0  0           0  0  0
   10.7422  -24.9920    0.0000 C   0  0  0  0  0  0           0  0  0
    9.9360  -24.8080    0.0000 C   0  0  0  0  0  0           0  0  0
   11.3869  -23.6553    0.0000 C   0  0  0  0  0  0           0  0  0
    9.5759  -24.0672    0.0000 C   0  0  0  0  0  0           0  0  0
   10.7407  -23.1401    0.0000 C   0  0  0  0  0  0           0  0  0
    9.9359  -23.3262    0.0000 N   0  0  3  0  0  0           0  0  0
    9.4218  -22.6810    0.0000 C   0  0  3  0  0  0           0  0  0
    9.2966  -21.8619    0.0000 C   0  0  0  0  0  0           0  0  0
    8.6514  -22.3761    0.0000 C   0  0  0  0  0  0           0  0  0
   14.9726  -19.8859    0.0000 C   0  0  3  0  0  0           0  0  0
   15.7958  -19.8833    0.0000 F   0  0  0  0  0  0           0  0  0
   14.1458  -19.8792    0.0000 F   0  0  0  0  0  0           0  0  0
   14.9719  -19.0609    0.0000 F   0  0  0  0  0  0           0  0  0
 15 16  2  0     0  0
 16 11  1  0     0  0
  7  8  1  0     0  0
  4 17  1  0     0  0
 17 18  1  0     0  0
  7  9  2  0     0  0
 18 19  1  0     0  0
  4  5  1  0     0  0
  8 20  1  0     0  0
  5 10  1  0     0  0
 20 21  1  0     0  0
  2  3  1  0     0  0
  8 22  1  0     0  0
 10 11  1  0     0  0
 21 23  1  0     0  0
  5  6  2  0     0  0
 22 24  1  0     0  0
 11 12  2  0     0  0
 23 25  1  0     0  0
 24 25  1  0     0  0
  6  1  1  0     0  0
 25 26  1  0     0  0
 27 26  1  0     0  0
 28 27  1  0     0  0
 26 28  1  0     0  0
 12 13  1  0     0  0
  1  2  2  0     0  0
 13 14  2  0     0  0
 14 29  1  0     0  0
  2  7  1  0     0  0
 29 30  1  0     0  0
 14 15  1  0     0  0
 29 31  1  0     0  0
  3  4  2  0     0  0
 29 32  1  0     0  0
M  END