
  SciTegic10311316212D

 25 28  0  0  0  0            999 V2000
   11.6150   -9.4899    0.0000 C   0  0
   12.3378   -9.8892    0.0000 O   0  0
   12.3042   -8.2422    0.0000 N   0  0
   11.5946   -8.6644    0.0000 C   0  0
   13.0270   -8.6415    0.0000 C   0  0
   13.0361   -9.4631    0.0000 C   0  0
   13.7482   -9.8637    0.0000 C   0  0
   14.4557   -9.4473    0.0000 C   0  0
   14.4466   -8.6258    0.0000 C   0  0
   13.7300   -8.2207    0.0000 C   0  0
   10.8717   -8.2650    0.0000 O   0  0
   15.1576   -8.2057    0.0000 C   0  0
   15.8769   -8.6113    0.0000 N   0  0
   15.8793   -9.4345    0.0000 C   0  0
   16.5944   -9.8401    0.0000 C   0  0
   17.3079   -9.4236    0.0000 C   0  0
   17.3015   -8.5969    0.0000 C   0  0
   16.5817   -8.1867    0.0000 C   0  0
   18.0239   -9.8301    0.0000 C   0  0
   18.0277  -10.6569    0.0000 C   0  0
   18.7446  -11.0652    0.0000 C   0  0
   19.4581  -10.6478    0.0000 C   0  0
   19.4502   -9.8178    0.0000 C   0  0
   18.7328   -9.4132    0.0000 C   0  0
   10.9090   -9.9183    0.0000 C   0  0
  1  2  1  0
  1  4  1  0
  2  6  1  0
  5  3  1  0
  3  4  1  0
  5  6  1  0
  5 10  2  0
  6  7  2  0
  7  8  1  0
  8  9  2  0
  9 10  1  0
  4 11  2  0
  9 12  1  0
 12 13  1  0
 13 14  1  0
 13 18  1  0
 14 15  1  0
 15 16  1  0
 16 17  1  0
 17 18  1  0
 19 20  2  0
 20 21  1  0
 21 22  2  0
 22 23  1  0
 23 24  2  0
 24 19  1  0
 16 19  1  0
  1 25  1  0
M  END