
          11280715012D 1   1.00000     0.00000     0

 29 31  0     0  0            999 V2000
   12.4542   -3.6917    0.0000 N   0  0  0  0  0  0           0  0  0
    8.7792   -4.9375    0.0000 C   0  0  0  0  0  0           0  0  0
   13.6792   -4.2375    0.0000 N   0  0  0  0  0  0           0  0  0
   13.2667   -3.5167    0.0000 C   0  0  0  0  0  0           0  0  0
   12.3667   -4.5167    0.0000 C   0  0  0  0  0  0           0  0  0
    8.7792   -5.7667    0.0000 N   0  0  0  0  0  0           0  0  0
    4.4750   -5.7542    0.0000 N   0  0  0  0  0  0           0  0  0
   13.1292   -4.8542    0.0000 C   0  0  0  0  0  0           0  0  0
    5.1917   -3.6917    0.0000 C   0  0  0  0  0  0           0  0  0
    5.1917   -4.5167    0.0000 C   0  0  3  0  0  0           0  0  0
    4.4750   -4.9375    0.0000 C   0  0  0  0  0  0           0  0  0
    9.5000   -4.5167    0.0000 N   0  0  0  0  0  0           0  0  0
    8.0625   -4.5167    0.0000 N   0  0  0  0  0  0           0  0  0
    4.4750   -3.2792    0.0000 C   0  0  0  0  0  0           0  0  0
    5.9125   -3.2792    0.0000 C   0  0  0  0  0  0           0  0  0
    5.1917   -2.0292    0.0000 C   0  0  0  0  0  0           0  0  0
    5.9125   -2.4542    0.0000 C   0  0  0  0  0  0           0  0  0
    4.4750   -2.4542    0.0000 C   0  0  0  0  0  0           0  0  0
    5.2000   -1.2042    0.0000 F   0  0  0  0  0  0           0  0  0
   11.6500   -4.9375    0.0000 C   0  0  0  0  0  0           0  0  0
    3.7542   -6.1750    0.0000 C   0  0  0  0  0  0           0  0  0
    5.9042   -4.9375    0.0000 C   0  0  0  0  0  0           0  0  0
    3.7542   -4.5167    0.0000 C   0  0  0  0  0  0           0  0  0
   10.2167   -4.9375    0.0000 C   0  0  0  0  0  0           0  0  0
    7.3417   -4.9375    0.0000 C   0  0  0  0  0  0           0  0  0
   10.9375   -4.5167    0.0000 C   0  0  0  0  0  0           0  0  0
    6.6250   -4.5167    0.0000 C   0  0  0  0  0  0           0  0  0
    3.0375   -5.7625    0.0000 C   0  0  0  0  0  0           0  0  0
    3.0375   -4.9292    0.0000 C   0  0  0  0  0  0           0  0  0
  2 12  1  0     0  0
  3  4  1  0     0  0
  4  1  2  0     0  0
  5  1  1  0     0  0
  6  2  2  0     0  0
  7 11  1  0     0  0
  8  5  2  0     0  0
  9 10  1  0     0  0
 10 22  1  0     0  0
 11 10  1  0     0  0
 12 24  1  0     0  0
 13  2  1  0     0  0
 14  9  1  0     0  0
 15  9  2  0     0  0
 16 17  2  0     0  0
 17 15  1  0     0  0
 18 14  2  0     0  0
 19 16  1  0     0  0
 20  5  1  0     0  0
 21  7  2  0     0  0
 22 27  1  0     0  0
 23 11  2  0     0  0
 24 26  1  0     0  0
 25 13  1  0     0  0
 26 20  1  0     0  0
 27 25  1  0     0  0
 28 29  2  0     0  0
 29 23  1  0     0  0
  3  8  1  0     0  0
 16 18  1  0     0  0
 21 28  1  0     0  0
M  END