
  SciTegic08161218152D

 35 38  0  0  1  0            999 V2000
    6.3417   -4.9542    0.0000 C   0  0  2  0  0  0
    7.0542   -4.5417    0.0000 C   0  0  1  0  0  0
    5.9667   -1.7292    0.0000 O   0  0
    7.3917   -1.8500    0.0000 C   0  0  2  0  0  0
    7.4542   -1.0292    0.0000 C   0  0  1  0  0  0
    6.7792   -0.5625    0.0000 C   0  0  2  0  0  0
    5.6292   -5.3667    0.0000 N   0  0
    6.6417   -2.2042    0.0000 C   0  0
    6.0375   -0.9125    0.0000 C   0  0  2  0  0  0
    5.6292   -4.5417    0.0000 C   0  0  2  0  0  0
    7.7667   -4.9542    0.0000 C   0  0  2  0  0  0
    7.2750   -3.9167    0.0000 O   0  0
    6.4542   -4.5417    0.0000 C   0  0  1  0  0  0
    4.9167   -4.9417    0.0000 C   0  0
    4.2042   -5.3542    0.0000 C   0  0
    6.6500   -3.0292    0.0000 O   0  0
    3.4792   -4.9417    0.0000 C   0  0
    6.2417   -3.7417    0.0000 C   0  0
    2.7792   -5.3542    0.0000 C   0  0
    4.9167   -4.1167    0.0000 O   0  0
    4.2042   -6.1792    0.0000 C   0  0
    8.3917   -5.5042    0.0000 S   0  0
    7.0542   -5.3667    0.0000 O   0  0
    8.0667   -2.3167    0.0000 O   0  0
    6.8500    0.2708    0.0000 O   0  0
    2.7792   -6.1792    0.0000 C   0  0
    3.4917   -6.5917    0.0000 C   0  0
    8.2042   -0.6792    0.0000 O   0  0
    5.4292   -3.8542    0.0000 O   0  0
    5.3542   -0.4375    0.0000 O   0  0
    2.0542   -4.9417    0.0000 C   0  0
    8.2167   -6.3042    0.0000 C   0  0
    2.0542   -6.6042    0.0000 C   0  0
    1.3417   -5.3667    0.0000 C   0  0
    1.3417   -6.1917    0.0000 C   0  0
  2  1  1  0
  3  8  1  0
  4  8  1  0
  5  4  1  0
  6  5  1  0
  1  7  1  6
  8 16  1  0
  9  3  1  0
 10  1  1  0
 11  2  1  0
 12 13  1  0
 13 10  1  0
 14  7  1  0
 15 14  1  0
 16 18  1  0
 17 15  2  0
 13 18  1  1
 19 17  1  0
 20 14  2  0
 21 15  1  0
 11 22  1  6
  2 23  1  6
  4 24  1  1
  6 25  1  6
 26 27  1  0
 27 21  2  0
  5 28  1  1
 10 29  1  1
  9 30  1  1
 31 19  2  0
 32 22  1  0
 33 26  2  0
 34 31  1  0
 35 33  1  0
 11 12  1  0
 26 19  1  0
  9  6  1  0
 35 34  2  0
M  END