
  Mrv0541 04051115152D          

 23 25  0  0  0  0            999 V2000
    0.0788    0.0910    0.0000 C   0  0  0  0  0  0  0  0  0  0  0  0
   -0.6356   -0.3215    0.0000 C   0  0  0  0  0  0  0  0  0  0  0  0
   -1.3501    0.0910    0.0000 C   0  0  0  0  0  0  0  0  0  0  0  0
   -1.3501    0.9160    0.0000 O   0  0  0  0  0  0  0  0  0  0  0  0
   -2.0646    1.3285    0.0000 C   0  0  0  0  0  0  0  0  0  0  0  0
   -2.0646   -0.3215    0.0000 C   0  0  0  0  0  0  0  0  0  0  0  0
   -0.6356   -1.1465    0.0000 C   0  0  0  0  0  0  0  0  0  0  0  0
   -1.3501   -1.5590    0.0000 C   0  0  0  0  0  0  0  0  0  0  0  0
   -2.0646   -1.1465    0.0000 C   0  0  0  0  0  0  0  0  0  0  0  0
   -2.7790   -1.5590    0.0000 O   0  0  0  0  0  0  0  0  0  0  0  0
    0.7933   -0.3215    0.0000 C   0  0  0  0  0  0  0  0  0  0  0  0
    0.7933   -1.1465    0.0000 C   0  0  0  0  0  0  0  0  0  0  0  0
    1.5078   -1.5590    0.0000 C   0  0  0  0  0  0  0  0  0  0  0  0
    2.2222   -1.1465    0.0000 C   0  0  0  0  0  0  0  0  0  0  0  0
    2.2222   -0.3215    0.0000 N   0  0  0  0  0  0  0  0  0  0  0  0
    1.5078    0.0910    0.0000 C   0  0  0  0  0  0  0  0  0  0  0  0
    1.5078    0.9160    0.0000 C   0  0  0  0  0  0  0  0  0  0  0  0
    0.7933    1.3285    0.0000 C   0  0  0  0  0  0  0  0  0  0  0  0
    0.7933    2.1535    0.0000 N   0  0  0  0  0  0  0  0  0  0  0  0
    1.5078    2.5660    0.0000 C   0  0  0  0  0  0  0  0  0  0  0  0
    2.2222    2.1535    0.0000 C   0  0  0  0  0  0  0  0  0  0  0  0
    2.2222    1.3285    0.0000 C   0  0  0  0  0  0  0  0  0  0  0  0
   -2.7790   -2.3840    0.0000 C   0  0  0  0  0  0  0  0  0  0  0  0
  2  1  1  0  0  0  0
  1 11  2  0  0  0  0
  3  2  1  0  0  0  0
  2  7  2  0  0  0  0
  3  4  1  0  0  0  0
  6  3  2  0  0  0  0
  5  4  1  0  0  0  0
  9  6  1  0  0  0  0
  7  8  1  0  0  0  0
  9  8  2  0  0  0  0
  9 10  1  0  0  0  0
 23 10  1  0  0  0  0
 12 11  1  0  0  0  0
 11 16  1  0  0  0  0
 13 12  1  0  0  0  0
 14 13  1  0  0  0  0
 14 15  1  0  0  0  0
 16 15  2  0  0  0  0
 17 16  1  0  0  0  0
 17 18  2  0  0  0  0
 17 22  1  0  0  0  0
 18 19  1  0  0  0  0
 20 19  2  0  0  0  0
 21 20  1  0  0  0  0
 22 21  2  0  0  0  0
M  END