
  SciTegic10301317112D

 65 67  0  0  1  0            999 V2000
   12.7978   -3.5257    0.0000 N   0  0
   12.0938   -3.1136    0.0000 C   0  0
    3.5085   -3.1651    0.0000 C   0  0
    5.6549   -3.5601    0.0000 C   0  0
    7.8012   -3.1308    0.0000 C   0  0
    9.9475   -3.5257    0.0000 C   0  0
   13.5705   -3.8290    0.0000 C   0  0  2  0  0  0
    4.2297   -3.5772    0.0000 N   0  0
    2.7874   -3.5944    0.0000 C   0  0  1  0  0  0
    6.3588   -3.1480    0.0000 N   0  0
    8.5223   -3.5429    0.0000 N   0  0
   10.6515   -3.1079    0.0000 N   0  0
    4.9337   -3.1594    0.0000 C   0  0  1  0  0  0
    7.0800   -3.5543    0.0000 C   0  0  2  0  0  0
    9.2263   -3.1250    0.0000 C   0  0  1  0  0  0
   13.7765   -4.6246    0.0000 C   0  0
   11.3726   -3.5257    0.0000 C   0  0  1  0  0  0
   12.7634   -6.8396    0.0000 C   0  0
    2.0834   -3.1823    0.0000 N   0  0
    1.3622   -3.5944    0.0000 C   0  0
    0.6411   -3.1937    0.0000 C   0  0
   12.0423   -7.2459    0.0000 N   0  0
    0.6411   -2.3695    0.0000 C   0  0
   12.0938   -2.2894    0.0000 O   0  0
    3.4914   -2.3410    0.0000 O   0  0
    5.6549   -4.3842    0.0000 O   0  0
    7.7840   -2.3066    0.0000 O   0  0
    9.9475   -4.3499    0.0000 O   0  0
    4.9337   -2.3238    0.0000 C   0  0
   13.1927   -5.2084    0.0000 O   0  0
    7.0972   -4.3785    0.0000 C   0  0
    9.2091   -2.3008    0.0000 C   0  0
   -1.3565   -1.6484    0.0000 N   0  0
    1.3622   -4.4186    0.0000 O   0  0
   12.7634   -6.0154    0.0000 N   0  0
   14.5663   -4.8421    0.0000 N   0  0
   13.4674   -7.2631    0.0000 N   0  0
   12.8321   -2.7015    0.0000 C   0  0
    5.6377   -1.9117    0.0000 C   0  0
    0.0573   -1.7857    0.0000 C   0  0
    7.0628   -1.0703    0.0000 C   0  0
    2.8046   -4.4128    0.0000 C   0  0
    5.6377   -1.0875    0.0000 C   0  0
    6.3588   -2.3180    0.0000 C   0  0
    6.3417   -0.6696    0.0000 C   0  0
    7.0800   -1.8945    0.0000 C   0  0
   14.0856   -3.1937    0.0000 C   0  0
    7.7668   -0.6582    0.0000 O   0  0
    3.5085   -4.8135    0.0000 O   0  0
   -0.6982   -2.1177    0.0000 C   0  0
   13.6391   -2.4955    0.0000 C   0  0
   11.3555   -4.3499    0.0000 C   0  0
    9.9303   -1.8774    0.0000 C   0  0
    7.8012   -4.7792    0.0000 C   0  0
   -1.2820   -0.8242    0.0000 C   0  0
   14.7724   -5.6377    0.0000 C   0  0
   12.0594   -5.6033    0.0000 C   0  0
    0.1374   -0.9615    0.0000 C   0  0
   12.0766   -4.7792    0.0000 C   0  0
    8.4880   -4.3270    0.0000 C   0  0
    7.9042   -5.6033    0.0000 C   0  0
    9.9131   -1.0532    0.0000 C   0  0
   10.6515   -2.2837    0.0000 C   0  0
   15.5794   -5.8437    0.0000 C   0  0
   -0.5265   -0.4808    0.0000 C   0  0
  2  1  1  0
  3  8  1  0
  4 10  1  0
  5 11  1  0
  6 12  1  0
  7  1  1  0
  8 13  1  0
  9  3  1  0
 10 14  1  0
 11 15  1  0
 12 17  1  0
 13  4  1  0
 14  5  1  0
 15  6  1  0
  7 16  1  1
 17  2  1  0
 18 35  2  0
 19  9  1  0
 20 19  1  0
 21 20  1  0
 22 18  1  0
 23 21  2  0
 24  2  2  0
 25  3  2  0
 26  4  2  0
 27  5  2  0
 28  6  2  0
 13 29  1  1
 30 16  2  0
 14 31  1  1
 15 32  1  1
 33 50  2  0
 34 20  2  0
 35 57  1  0
 36 16  1  0
 37 18  1  0
 38  1  1  0
 39 29  1  0
 40 23  1  0
 41 46  2  0
  9 42  1  6
 43 39  1  0
 44 39  2  0
 45 43  2  0
 46 44  1  0
 47  7  1  0
 48 41  1  0
 49 42  1  0
 50 40  1  0
 51 38  1  0
 17 52  1  6
 53 32  1  0
 54 31  1  0
 55 65  2  0
 56 36  1  0
 57 59  1  0
 58 40  2  0
 59 52  1  0
 60 54  1  0
 61 54  1  0
 62 53  1  0
 63 53  1  0
 64 56  1  0
 65 58  1  0
 51 47  1  0
 45 41  1  0
 33 55  1  0
M  END