
  SciTegic06051315212D

 38 44  0  0  0  0            999 V2000
    7.0646   -4.1348    0.0000 C   0  0
    6.3656   -7.8105    0.0000 C   0  0
    6.3618   -4.5437    0.0000 C   0  0
    7.7712   -4.5399    0.0000 C   0  0
    7.0664   -5.7723    0.0000 C   0  0
    5.4678   -0.8855    0.0000 C   0  0
    6.9786   -3.2776    0.0000 C   0  0
    6.3731   -9.4441    0.0000 C   0  0
    6.7843  -10.1464    0.0000 C   0  0
    8.3931   -3.2186    0.0000 C   0  0
    6.8834   -0.8271    0.0000 C   0  0
    6.2578   -2.9011    0.0000 C   0  0
   10.4758   -3.6415    0.0000 C   0  0
    9.5591   -4.9949    0.0000 C   0  0
    7.1906   -9.4395    0.0000 C   0  0
    9.6658   -3.5830    0.0000 C   0  0
    6.3606   -6.9980    0.0000 C   0  0  2  0  0  0
    7.0662   -6.5897    0.0000 N   0  0
    8.4212   -4.0364    0.0000 N   0  0
    9.1605   -2.9410    0.0000 N   0  0
    7.6409   -2.0240    0.0000 C   0  0
   10.3732   -5.0556    0.0000 C   0  0
   10.8321   -4.3702    0.0000 C   0  0
    7.7740   -5.3628    0.0000 C   0  0
    5.6503   -6.5861    0.0000 C   0  0
    6.3606   -5.3633    0.0000 N   0  0
    4.9445   -7.8120    0.0000 C   0  0
    6.1608   -0.4444    0.0000 C   0  0
    5.5026   -1.7014    0.0000 C   0  0
    6.9146   -1.6445    0.0000 C   0  0
    5.6579   -9.0380    0.0000 C   0  0
    5.6551   -8.2207    0.0000 N   0  0
    9.2053   -4.2634    0.0000 C   0  0
    4.9536   -9.4490    0.0000 O   0  0
    6.2225   -2.0803    0.0000 C   0  0
    4.9451   -6.9939    0.0000 C   0  0
    7.6720   -2.8418    0.0000 C   0  0
   11.6474   -4.4255    0.0000 O   0  0
 10 37  1  0
  7 37  1  0
 22 23  1  0
 10 19  1  0
  1  3  1  0
 13 16  1  0
 11 28  1  0
 20 10  2  0
 29 35  2  0
 28  6  2  0
 12  7  2  0
 14 22  2  0
  2 17  1  0
 23 13  2  0
 25 36  1  0
  5 18  1  0
  5 24  2  0
 32 31  1  0
 19 33  1  0
 16 20  1  0
 16 33  2  0
 27 32  1  0
 31  8  1  0
 24  4  1  0
  3 26  2  0
 36 27  1  0
  8 15  1  0
 31 34  2  0
 35 30  1  0
  4  1  2  0
 30 11  2  0
 32  2  1  0
 17 25  1  0
 33 14  1  0
  6 29  1  0
 35 12  1  0
  9  8  1  0
  4 19  1  0
 26  5  1  0
 17 18  1  1
 21 30  1  0
 15  9  1  0
 37 21  2  0
 23 38  1  0
M  END