
  SciTegic09261414462D

141149  0  0  0  0            999 V2000
    1.3667   -4.1553    0.0000 C   0  0
    1.3288   -6.6016    0.0000 C   0  0
    3.4699   -5.4139    0.0000 C   0  0
    2.7782   -4.1733    0.0000 C   0  0
    2.7459   -6.6307    0.0000 C   0  0
   -0.0784   -5.7627    0.0000 C   0  0
    2.0486   -5.3898    0.0000 C   0  0
    1.3394   -5.7868    0.0000 C   0  0
    3.6890   -4.6271    0.0000 C   0  0
    3.1146   -4.0439    0.0000 O   0  0
    2.1010   -2.1062    0.0000 O   0  0
    2.0649   -4.5734    0.0000 C   0  0
    3.4507   -7.0496    0.0000 C   0  0
    4.4807   -4.4192    0.0000 O   0  0
    0.6444   -4.5472    0.0000 O   0  0
    2.0928   -2.9326    0.0000 C   0  0
    1.3761   -3.3344    0.0000 C   0  0
    4.1573   -6.6550    0.0000 C   0  0
    2.7945   -3.3570    0.0000 C   0  0
    2.7550   -5.8109    0.0000 C   0  0
    4.8582   -7.0717    0.0000 N   0  0
   -0.8167   -6.9783    0.0000 O   0  0
    0.6371   -5.3645    0.0000 C   0  0
    0.6078   -6.9996    0.0000 C   0  0
   -0.0983   -6.5815    0.0000 C   0  0
    4.1744   -5.8350    0.0000 C   0  0
    5.5711   -6.6721    0.0000 C   0  0
    6.2735   -7.0897    0.0000 N   0  0
    5.5815   -5.8550    0.0000 S   0  0
   26.5242   -7.9630    0.0000 C   0  0
   13.0128   -7.0954    0.0000 C   0  0  1  0  0  0
   25.6101  -10.3724    0.0000 C   0  0
   10.3171   -7.0919    0.0000 N   0  0
    7.6257   -5.5329    0.0000 C   0  0
   13.0128   -7.8729    0.0000 C   0  0
   17.0563   -7.8782    0.0000 C   0  0
   15.7085   -7.8764    0.0000 O   0  0
    7.6257   -4.7548    0.0000 O   0  0
   20.4274   -5.9355    0.0000 C   0  0
    6.9464   -5.9195    0.0000 C   0  0
    6.9464   -6.6962    0.0000 C   0  0  1  0  0  0
   21.7721   -8.2684    0.0000 C   0  0
   23.1199   -6.7147    0.0000 C   0  0  2  0  0  0
   26.4910   -7.1091    0.0000 N   0  0
   23.7954   -7.8871    0.0000 O   0  0
   29.1867   -7.8943    0.0000 C   0  0
   26.3721  -10.5318    0.0000 C   0  0
   21.0998   -7.8836    0.0000 C   0  0
   29.8591   -6.7236    0.0000 C   0  0
   10.3154   -7.8691    0.0000 C   0  0
    9.6461   -5.9230    0.0000 O   0  0
   28.5136   -5.9481    0.0000 C   0  0
   25.8114   -6.7183    0.0000 C   0  0
   27.8410   -4.7812    0.0000 C   0  0
   20.4243   -6.7112    0.0000 N   0  0
   18.4011   -7.8782    0.0000 N   0  0
   13.6893   -6.7022    0.0000 C   0  0
   23.1139   -4.0150    0.0000 C   0  0
   21.7721   -6.7129    0.0000 C   0  0
   17.7287   -5.9337    0.0000 O   0  0
   22.4445   -9.4390    0.0000 O   0  0
   27.8389   -5.5555    0.0000 C   0  0
   23.7954   -7.1055    0.0000 C   0  0
   28.5113   -6.7219    0.0000 N   0  0
   28.5157   -4.3878    0.0000 C   0  0
   11.6650   -5.5382    0.0000 O   0  0
   25.1391   -7.1073    0.0000 C   0  0  2  0  0  0
   27.8389   -7.1109    0.0000 C   0  0
   15.0330   -6.7040    0.0000 C   0  0  2  0  0  0
   10.9896   -5.9248    0.0000 C   0  0  1  0  0  0
   25.1391   -7.8889    0.0000 C   0  0
   31.8782   -7.8978    0.0000 O   0  0
   19.0765   -5.9355    0.0000 C   0  0
   17.0563   -7.1007    0.0000 C   0  0  2  0  0  0
   17.7287   -9.0446    0.0000 O   0  0
    8.9732   -7.8675    0.0000 C   0  0
   27.1635   -6.7201    0.0000 C   0  0  2  0  0  0
   27.8389   -7.8924    0.0000 O   0  0
    7.6249   -7.8657    0.0000 O   0  0
   21.7721   -9.0500    0.0000 C   0  0
   22.4476   -7.1038    0.0000 N   0  0
    8.3011   -5.9195    0.0000 O   0  0
   31.2028   -6.7254    0.0000 C   0  0  2  0  0  0
   22.7267   -4.6886    0.0000 C   0  0
    9.6461   -6.6972    0.0000 C   0  0
   13.6893   -5.9283    0.0000 O   0  0
    7.6249   -7.0904    0.0000 C   0  0
   25.8114   -5.9444    0.0000 O   0  0
   24.4678   -6.7165    0.0000 N   0  0
   29.1884   -5.5590    0.0000 C   0  0
   19.7520   -7.8817    0.0000 O   0  0
   16.1766   -4.9928    0.0000 C   0  0
   23.1151   -5.3617    0.0000 C   0  0
   19.7520   -7.1043    0.0000 C   0  0
    8.9732   -7.0907    0.0000 C   0  0  1  0  0  0
   22.7279   -6.0353    0.0000 C   0  0
   10.9892   -8.2600    0.0000 C   0  0
   12.3374   -6.7005    0.0000 N   0  0
   21.7721   -5.9391    0.0000 O   0  0
   14.3648   -7.0972    0.0000 N   0  0
   15.7085   -7.0989    0.0000 C   0  0
   29.1867   -7.1126    0.0000 C   0  0  1  0  0  0
   25.8911   -9.0513    0.0000 C   0  0
    9.6458   -8.2566    0.0000 C   0  0
   29.8591   -5.9498    0.0000 O   0  0
   10.9896   -6.6988    0.0000 C   0  0  1  0  0  0
   22.7254   -3.3419    0.0000 C   0  0
   11.6650   -7.0937    0.0000 C   0  0
   25.8114   -8.2737    0.0000 C   0  0
   30.5304   -7.1145    0.0000 N   0  0
   31.8782   -5.5608    0.0000 C   0  0
   23.6703   -6.1563    0.0000 C   0  0
    9.6439   -9.0342    0.0000 C   0  0
   19.7520   -4.7708    0.0000 C   0  0
   32.5506   -6.7272    0.0000 O   0  0
   32.5537   -5.9474    0.0000 C   0  0
   17.7287   -8.2630    0.0000 C   0  0
   10.3172   -5.5399    0.0000 C   0  0
   21.0998   -7.1061    0.0000 C   0  0  2  0  0  0
   31.8782   -7.1163    0.0000 C   0  0
   10.9882   -9.0360    0.0000 C   0  0
   27.0441   -8.5369    0.0000 N   0  0
   31.8782   -4.7870    0.0000 C   0  0
   18.4042   -7.1025    0.0000 N   0  0
   19.7520   -5.5448    0.0000 C   0  0
   25.3738   -9.6280    0.0000 C   0  0
    8.2988   -6.6964    0.0000 N   0  0
   10.3134   -9.4252    0.0000 C   0  0
   15.9804   -5.7416    0.0000 C   0  0
   14.6379   -6.0270    0.0000 C   0  0
   29.1894   -4.7830    0.0000 C   0  0
   11.6650   -7.8710    0.0000 O   0  0
   27.1635   -5.9462    0.0000 C   0  0
   31.2028   -5.9474    0.0000 C   0  0
   16.3808   -6.7058    0.0000 N   0  0
   19.0765   -6.7094    0.0000 C   0  0  1  0  0  0
   26.8977   -9.9551    0.0000 C   0  0
   15.2300   -5.9477    0.0000 C   0  0
   26.6531   -9.2148    0.0000 C   0  0
   21.0967   -9.4407    0.0000 O   0  0
   17.7287   -6.7075    0.0000 C   0  0
 25 24  1  0
  9 10  2  0
 16 19  1  0
 13  5  1  0
 26  3  2  0
 17  1  2  0
  3  9  1  0
  5 20  2  0
 13 18  2  0
 24  2  2  0
 17 16  1  0
  6 25  2  0
  4 12  1  0
  3 20  1  0
  6 23  1  0
 23  8  2  0
  2  8  1  0
 19  4  2  0
 11 16  2  0
 12  7  2  0
  9 14  1  0
 23 15  1  0
  8  7  1  0
  1 12  1  0
 22 25  1  0
 15  1  1  0
 18 21  1  0
 20  7  1  0
 18 26  1  0
 21 27  1  0
 27 28  1  0
 27 29  2  0
 41 40  1  1
104 50  1  0
 95 76  1  6
120 72  2  0
 34 38  2  0
108132  2  0
 44 77  1  0
135 74  1  0
 43112  1  1
 34 82  1  0
 90131  1  0
 28 41  1  0
 74141  1  0
 80 61  2  0
 74 36  1  6
 62 52  1  0
 67 53  1  0
 89 67  1  0
 71109  1  0
106108  1  0
 77133  1  1
110 83  1  0
136 73  1  1
 49105  2  0
 42 80  1  0
129 92  1  0
 64102  1  0
141124  1  0
 30109  2  0
125114  1  0
 50 97  2  0
 70 66  1  1
138129  1  0
 67 71  1  6
 96 93  1  0
 49110  1  0
 48 42  1  0
139137  1  0
 31 57  1  0
 69101  1  0
 32126  2  0
139122  1  0
126103  1  0
 93 84  1  0
 40 34  1  0
 59 99  2  0
106 33  1  1
136 94  1  0
 63 45  2  0
 83120  1  0
 43 63  1  0
 92107  1  0
 84 58  1  0
125 39  1  0
102 49  1  0
 68 78  2  0
 57 86  2  0
 36117  1  0
 43 96  1  0
108 98  1  0
119 48  1  6
 65 54  1  0
 85 33  1  0
 87127  1  0
 94 91  2  0
121128  2  0
124136  1  0
137 47  2  0
 47 32  1  0
 77 68  1  0
117 75  2  0
131 65  2  0
 57100  1  0
103139  2  0
101135  1  0
 68 64  1  0
 54 62  2  0
 83134  1  1
 53 44  1  0
 97121  1  0
 41 87  1  0
 98 31  1  0
 70118  1  0
 52 90  2  0
 69130  1  1
 31 35  1  6
119 59  1  0
113104  2  0
133 62  1  0
117 56  1  0
100 69  1  0
109103  1  0
 81 43  1  0
134111  1  0
128113  1  0
 63 89  1  0
 59 81  1  0
111123  1  0
127 95  1  0
 55119  1  0
120115  1  0
101 37  2  0
111116  1  0
 69138  1  0
 87 79  2  0
122 30  1  0
 58107  2  0
141 60  2  0
106 70  1  0
102 46  1  6
 73125  1  0
 94 55  1  0
 95 85  1  0
 76104  1  0
 53 88  2  0
 80140  1  0
 85 51  2  0
M  END