
  -ISIS-  03291115432D

 45 42  0  0  1  0  0  0  0  0999 V2000
    3.5875   -3.5875    0.0000 C   0  0  2  0  0  0  0  0  0  0  0  0
    4.3000   -3.1750    0.0000 C   0  0  2  0  0  0  0  0  0  0  0  0
    0.7292   -3.5750    0.0000 C   0  0  1  0  0  0  0  0  0  0  0  0
    1.4417   -3.1625    0.0000 C   0  0  2  0  0  0  0  0  0  0  0  0
    2.8667   -4.8167    0.0000 S   0  0  3  0  0  0  0  0  0  0  0  0
    5.7292   -3.1875    0.0000 S   0  0  3  0  0  0  0  0  0  0  0  0
    0.0125   -4.8125    0.0000 S   0  0  3  0  0  0  0  0  0  0  0  0
    2.8750   -3.1667    0.0000 C   0  0  1  0  0  0  0  0  0  0  0  0
    2.8792   -0.7000    0.0000 S   0  0  3  0  0  0  0  0  0  0  0  0
    0.0167   -3.1625    0.0000 C   0  0  2  0  0  0  0  0  0  0  0  0
    1.4500   -2.3375    0.0000 O   0  0  0  0  0  0  0  0  0  0  0  0
    2.8750   -2.3500    0.0000 C   0  0  2  0  0  0  0  0  0  0  0  0
    2.1625   -3.5792    0.0000 O   0  0  0  0  0  0  0  0  0  0  0  0
    4.3042   -2.3500    0.0000 C   0  0  1  0  0  0  0  0  0  0  0  0
    3.5917   -1.9375    0.0000 O   0  0  0  0  0  0  0  0  0  0  0  0
    0.0167   -2.3417    0.0000 C   0  0  2  0  0  0  0  0  0  0  0  0
    0.7292   -1.9292    0.0000 C   0  0  1  0  0  0  0  0  0  0  0  0
    3.5875   -4.4125    0.0000 O   0  0  0  0  0  0  0  0  0  0  0  0
    5.0125   -3.5917    0.0000 O   0  0  0  0  0  0  0  0  0  0  0  0
    0.7292   -4.4000    0.0000 O   0  0  0  0  0  0  0  0  0  0  0  0
    2.1625   -1.9292    0.0000 C   0  0  0  0  0  0  0  0  0  0  0  0
    2.1625   -1.1042    0.0000 O   0  0  0  0  0  0  0  0  0  0  0  0
    2.1625   -5.2417    0.0000 O   0  5  0  0  0  0  0  0  0  0  0  0
    6.4542   -2.7917    0.0000 O   0  5  0  0  0  0  0  0  0  0  0  0
   -0.6875   -5.2375    0.0000 O   0  5  0  0  0  0  0  0  0  0  0  0
    3.6000   -0.3000    0.0000 O   0  5  0  0  0  0  0  0  0  0  0  0
    2.4458   -4.1000    0.0000 O   0  0  0  0  0  0  0  0  0  0  0  0
    6.1375   -3.9000    0.0000 O   0  0  0  0  0  0  0  0  0  0  0  0
    5.3125   -2.4667    0.0000 O   0  0  0  0  0  0  0  0  0  0  0  0
    0.4250   -5.5250    0.0000 O   0  0  0  0  0  0  0  0  0  0  0  0
   -0.4000   -4.1000    0.0000 O   0  0  0  0  0  0  0  0  0  0  0  0
    3.2750   -5.5292    0.0000 O   0  0  0  0  0  0  0  0  0  0  0  0
    2.4625    0.0208    0.0000 O   0  0  0  0  0  0  0  0  0  0  0  0
    3.2875   -1.4125    0.0000 O   0  0  0  0  0  0  0  0  0  0  0  0
   -0.6958   -3.5792    0.0000 O   0  0  0  0  0  0  0  0  0  0  0  0
   -0.7000   -1.9375    0.0000 O   0  0  0  0  0  0  0  0  0  0  0  0
    5.0250   -1.9417    0.0000 O   0  0  0  0  0  0  0  0  0  0  0  0
    0.7250   -1.1042    0.0000 C   0  0  0  0  0  0  0  0  0  0  0  0
   -0.4958   -6.3667    0.0000 Na  0  3  0  0  0  0  0  0  0  0  0  0
    4.3125   -6.1417    0.0000 Na  0  3  0  0  0  0  0  0  0  0  0  0
    7.2417   -4.8292    0.0000 Na  0  3  0  0  0  0  0  0  0  0  0  0
    3.5917    1.2250    0.0000 Na  0  3  0  0  0  0  0  0  0  0  0  0
    1.4417   -0.6917    0.0000 O   0  0  0  0  0  0  0  0  0  0  0  0
    5.0292   -1.1167    0.0000 C   0  0  0  0  0  0  0  0  0  0  0  0
    2.1542   -2.7500    0.0000 H   0  0  0  0  0  0  0  0  0  0  0  0
  2  1  1  0  0  0  0
  3  4  1  0  0  0  0
  4 13  1  0  0  0  0
  5 18  1  0  0  0  0
  6 19  1  0  0  0  0
  7 20  1  0  0  0  0
  8  1  1  0  0  0  0
  9 22  1  0  0  0  0
 10  3  1  0  0  0  0
 11  4  1  0  0  0  0
 12  8  1  0  0  0  0
  8 13  1  6  0  0  0
 14  2  1  0  0  0  0
 15 12  1  0  0  0  0
 16 17  1  0  0  0  0
 17 11  1  0  0  0  0
  1 18  1  1  0  0  0
  2 19  1  6  0  0  0
  3 20  1  6  0  0  0
 12 21  1  1  0  0  0
 22 21  1  0  0  0  0
 23  5  1  0  0  0  0
 24  6  1  0  0  0  0
 25  7  1  0  0  0  0
 26  9  1  0  0  0  0
 27  5  2  0  0  0  0
 28  6  2  0  0  0  0
 29  6  2  0  0  0  0
 30  7  2  0  0  0  0
 31  7  2  0  0  0  0
 32  5  2  0  0  0  0
 33  9  2  0  0  0  0
 34  9  2  0  0  0  0
 10 35  1  1  0  0  0
 16 36  1  1  0  0  0
 14 37  1  1  0  0  0
 17 38  1  1  0  0  0
 43 38  1  0  0  0  0
 44 37  1  0  0  0  0
  4 45  1  1  0  0  0
 15 14  1  0  0  0  0
 10 16  1  0  0  0  0
M  CHG  8  23  -1  24  -1  25  -1  26  -1  39   1  40   1  41   1  42   1
M  END