
  SciTegic11111309142D

 51 55  0  0  1  0            999 V2000
    0.8122  -14.6568    0.0000 C   0  0
    1.7210  -21.6714    0.0000 C   0  0
    2.5079  -21.9226    0.0000 C   0  0
    2.9898  -21.2540    0.0000 C   0  0
    2.5041  -20.5919    0.0000 C   0  0
    1.7210  -20.8464    0.0000 C   0  0
   -0.3102  -17.4120    0.0000 O   0  0
   -0.7954  -18.0798    0.0000 C   0  0
   -0.4926  -18.8478    0.0000 C   0  0
   -0.9945  -19.4598    0.0000 C   0  0
   -0.7137  -20.1941    0.0000 C   0  0
    0.0634  -20.2979    0.0000 C   0  0
    0.5253  -19.6633    0.0000 C   0  0
    0.2027  -18.9408    0.0000 C   0  0
   -1.8093  -19.3277    0.0000 Cl  0  0
    0.6970  -18.2796    0.0000 Cl  0  0
    1.3463  -19.7497    0.0000 S   0  0
    1.4325  -18.9287    0.0000 O   0  0
    1.2599  -20.5706    0.0000 O   0  0
    3.2190  -20.1791    0.0000 C   0  0
    3.9332  -20.5915    0.0000 N   0  0
    3.2190  -19.3528    0.0000 O   0  0
    3.9332  -21.4186    0.0000 C   0  0
    4.6435  -21.8286    0.0000 C   0  0
    5.3542  -21.4182    0.0000 N   0  0
    5.3542  -20.5960    0.0000 C   0  0
    4.6437  -20.1813    0.0000 C   0  0
    6.0656  -21.8290    0.0000 C   0  0
    6.0656  -22.6501    0.0000 O   0  0
    6.7843  -21.4140    0.0000 C   0  0  2  0  0  0
    7.4953  -21.8245    0.0000 C   0  0
    8.2142  -21.4095    0.0000 C   0  0
    8.9251  -21.8199    0.0000 C   0  0
    9.6440  -21.4048    0.0000 C   0  0
   -0.6470  -16.6555    0.0000 C   0  0
   -1.3184  -15.1471    0.0000 C   0  0
   -1.8054  -15.8221    0.0000 C   0  0
   -1.4666  -16.5752    0.0000 C   0  0
   -0.4940  -15.2342    0.0000 C   0  0
   -0.1619  -15.9913    0.0000 C   0  0
    0.6581  -16.0809    0.0000 N   0  0
    1.1467  -15.4144    0.0000 C   0  0
   -0.0094  -14.5701    0.0000 C   0  0
    1.9699  -15.5029    0.0000 C   0  0
   -0.3454  -13.8134    0.0000 C   0  0
   10.3611  -21.8188    0.0000 N   0  3
    6.7843  -20.5860    0.0000 N   0  0
   10.3611  -22.6468    0.0000 C   0  0
   11.0782  -21.4048    0.0000 C   0  0
   10.3555  -20.9872    0.0000 C   0  0
    2.1664  -19.8392    0.0000 N   0  0
 17 18  2  0
 17 19  2  0
  5 20  1  0
 20 21  1  0
 20 22  2  0
 21 23  1  0
 21 27  1  0
 23 24  1  0
 24 25  1  0
 25 26  1  0
 26 27  1  0
 25 28  1  0
 28 29  2  0
 28 30  1  0
 30 31  1  0
 31 32  1  0
 32 33  1  0
 33 34  1  0
  7 35  1  0
 35 40  2  0
  2  3  1  0
 39 36  2  0
  3  4  1  0
 36 37  1  0
  4  5  1  0
 37 38  2  0
 38 35  1  0
  5  6  1  0
  6  2  1  0
 39 40  1  0
  7  8  1  0
 40 41  1  0
  8  9  1  0
 41 42  2  0
 42  1  1  0
  9 10  2  0
  1 43  2  0
 43 39  1  0
 10 11  1  0
 42 44  1  0
 11 12  2  0
 43 45  1  0
 12 13  1  0
 34 46  1  0
 13 14  2  0
 30 47  1  1
 14  9  1  0
 46 48  1  0
 10 15  1  0
 46 49  1  0
 14 16  1  0
 46 50  1  0
 13 17  1  0
 17 51  1  0
 51  5  1  0
M  CHG  1  46   1
M  END