
  SciTegic11261411092D

 26 30  0  0  0  0            999 V2000
   -3.6772   -0.4982    0.0000 O   0  0
   -3.6772    0.8367    0.0000 O   0  0
    2.5212    3.0888    0.0000 O   0  0
    1.3943   -1.8933    0.0000 N   0  0
    2.1087   -0.6558    0.0000 N   0  0
    1.3943    0.5817    0.0000 N   0  0
    0.6798   -0.6558    0.0000 C   0  0
   -0.7491   -0.6558    0.0000 C   0  0
   -1.4636   -0.2433    0.0000 C   0  0
    0.6798   -1.4808    0.0000 C   0  0
   -0.0347   -0.2433    0.0000 C   0  0
    1.3943   -0.2433    0.0000 C   0  0
   -2.8926   -0.2433    0.0000 C   0  0
   -2.8926    0.5817    0.0000 C   0  0
   -2.1781   -0.6558    0.0000 C   0  0
   -0.7491   -1.4808    0.0000 C   0  0
   -0.0347   -1.8933    0.0000 C   0  0
   -1.4636    0.5817    0.0000 C   0  0
   -2.1781    0.9942    0.0000 C   0  0
    2.1087   -1.4808    0.0000 C   0  0
   -4.1621    0.1692    0.0000 C   0  0
    2.1087    0.9942    0.0000 C   0  0
    2.1087    1.8192    0.0000 C   0  0
    2.7762    2.3041    0.0000 C   0  0
    1.4413    2.3041    0.0000 C   0  0
    1.6962    3.0888    0.0000 C   0  0
  1 13  1  0
  1 21  1  0
  2 14  1  0
  2 21  1  0
  3 24  1  0
  3 26  1  0
  4 10  1  0
  4 20  2  0
  5 12  2  0
  5 20  1  0
  6 12  1  0
  6 22  1  0
  7 10  2  0
  7 11  1  0
  7 12  1  0
  8  9  1  0
  8 11  2  0
  8 16  1  0
  9 15  1  0
  9 18  2  0
 10 17  1  0
 13 14  1  0
 13 15  2  0
 14 19  2  0
 16 17  2  0
 18 19  1  0
 22 23  1  0
 23 24  1  0
 23 25  1  0
 25 26  1  0
M  END