
          11280715142D 1   1.00000     0.00000     0

 36 40  0     0  0            999 V2000
    2.7750   -4.9542    0.0000 C   0  0  0  0  0  0           0  0  0
    3.4875   -4.5417    0.0000 C   0  0  0  0  0  0           0  0  0
    2.7750   -5.7792    0.0000 C   0  0  0  0  0  0           0  0  0
    3.4792   -3.7167    0.0000 N   0  0  0  0  0  0           0  0  0
    7.0417   -3.2792    0.0000 C   0  0  0  0  0  0           0  0  0
    4.1917   -3.2917    0.0000 C   0  0  0  0  0  0           0  0  0
    5.6000   -0.8167    0.0000 N   0  0  3  0  0  0           0  0  0
    5.6167   -3.2917    0.0000 C   0  0  0  0  0  0           0  0  0
    6.3292   -3.7042    0.0000 N   0  0  0  0  0  0           0  0  0
    8.4667   -3.2792    0.0000 N   0  0  3  0  0  0           0  0  0
    2.0625   -6.1917    0.0000 C   0  0  0  0  0  0           0  0  0
    2.0625   -4.5417    0.0000 C   0  0  0  0  0  0           0  0  0
    4.8917   -2.0542    0.0000 C   0  0  0  0  0  0           0  0  0
    3.4917   -6.1917    0.0000 N   0  0  0  0  0  0           0  0  0
    4.9125   -3.7042    0.0000 C   0  0  0  0  0  0           0  0  0
    7.7542   -3.6917    0.0000 C   0  0  0  0  0  0           0  0  0
    4.8875   -1.2292    0.0000 C   0  0  0  0  0  0           0  0  0
    7.0375   -2.4542    0.0000 O   0  0  0  0  0  0           0  0  0
    4.1875   -2.4792    0.0000 C   0  0  0  0  0  0           0  0  0
    5.6125   -2.4667    0.0000 C   0  0  0  0  0  0           0  0  0
    1.3500   -5.7792    0.0000 C   0  0  0  0  0  0           0  0  0
    7.0250   -0.8167    0.0000 C   0  0  0  0  0  0           0  0  0
    6.3042    0.4208    0.0000 C   0  0  0  0  0  0           0  0  0
    6.3125   -1.2292    0.0000 C   0  0  0  0  0  0           0  0  0
    5.5875    0.0083    0.0000 C   0  0  0  0  0  0           0  0  0
    4.2000   -4.9417    0.0000 C   0  0  0  0  0  0           0  0  0
    1.3500   -4.9542    0.0000 C   0  0  0  0  0  0           0  0  0
    4.2042   -5.7792    0.0000 C   0  0  0  0  0  0           0  0  0
    7.0250    0.0208    0.0000 C   0  0  3  0  0  0           0  0  0
    0.6292   -6.1917    0.0000 Cl  0  0  0  0  0  0           0  0  0
    7.7375    0.4333    0.0000 O   0  0  0  0  0  0           0  0  0
    8.4542   -2.4542    0.0000 C   0  0  0  0  0  0           0  0  0
    9.1792   -3.6917    0.0000 C   0  0  0  0  0  0           0  0  0
    9.8875   -3.2792    0.0000 C   0  0  0  0  0  0           0  0  0
    9.1750   -2.0417    0.0000 C   0  0  0  0  0  0           0  0  0
    9.8875   -2.4542    0.0000 C   0  0  0  0  0  0           0  0  0
  2  1  1  0     0  0
  3  1  1  0     0  0
  4  2  1  0     0  0
  5  9  1  0     0  0
  6  4  1  0     0  0
  7 17  1  0     0  0
  8 15  1  0     0  0
  9  8  1  0     0  0
 10 16  1  0     0  0
 11  3  2  0     0  0
 12  1  2  0     0  0
 13 19  2  0     0  0
 14  3  1  0     0  0
 15  6  2  0     0  0
 16  5  1  0     0  0
 17 13  1  0     0  0
 18  5  2  0     0  0
 19  6  1  0     0  0
 20 13  1  0     0  0
 21 27  2  0     0  0
 22 24  1  0     0  0
 23 25  1  0     0  0
 24  7  1  0     0  0
 25  7  1  0     0  0
 26  2  2  0     0  0
 27 12  1  0     0  0
 28 14  2  0     0  0
 29 23  1  0     0  0
 30 21  1  0     0  0
 31 29  1  0     0  0
 32 10  1  0     0  0
 33 10  1  0     0  0
 34 33  1  0     0  0
 35 32  1  0     0  0
 36 34  1  0     0  0
 11 21  1  0     0  0
 26 28  1  0     0  0
 20  8  2  0     0  0
 29 22  1  0     0  0
 35 36  1  0     0  0
M  END