
  SciTegic06051315212D

 35 40  0  0  0  0            999 V2000
   13.5521  -10.2984    0.0000 C   0  0
   14.9590   -7.0325    0.0000 C   0  0
   14.2643  -10.7047    0.0000 C   0  0
   17.4515   -6.2546    0.0000 C   0  0
   14.9588   -7.8498    0.0000 N   0  0
   14.9573   -5.3948    0.0000 C   0  0
   15.6677   -6.6229    0.0000 N   0  0
   14.2520   -8.2583    0.0000 C   0  0  2  0  0  0
   15.5626   -4.1024    0.0000 C   0  0
   12.8383   -8.2542    0.0000 C   0  0
   13.5494   -9.4811    0.0000 N   0  0
   14.6756  -11.4082    0.0000 C   0  0
   13.5446   -7.8464    0.0000 C   0  0
   16.2848   -4.4795    0.0000 C   0  0
   17.5571   -4.8444    0.0000 C   0  0
   12.8467  -10.7094    0.0000 O   0  0
   17.0971   -5.5221    0.0000 C   0  0
   14.8720   -4.5379    0.0000 C   0  0
   17.0527   -4.2007    0.0000 N   0  0
   15.0819  -10.7000    0.0000 C   0  0
   14.2569   -9.0709    0.0000 C   0  0
   16.3126   -5.2974    0.0000 N   0  0
   15.5318   -3.2844    0.0000 C   0  0
   12.8377   -9.0724    0.0000 C   0  0
   18.3672   -4.9023    0.0000 C   0  0
   18.7241   -5.6320    0.0000 C   0  0
   14.1501   -4.1612    0.0000 C   0  0
   15.6649   -5.8001    0.0000 C   0  0
   14.2520   -6.6234    0.0000 N   0  0
   14.2531   -5.8038    0.0000 C   0  0
   18.2657   -6.3147    0.0000 C   0  0
   14.1147   -3.3423    0.0000 C   0  0
   14.8087   -2.9047    0.0000 C   0  0
   14.7765   -2.0881    0.0000 Cl  0  0
   13.3908   -2.9631    0.0000 Cl  0  0
  3 20  1  0
 24 11  1  0
 15 17  2  0
 11  1  1  0
 10 24  1  0
  4 31  2  0
  1  3  1  0
 14  9  1  0
 19 14  2  0
  6 30  1  0
  2  5  1  0
 13 10  1  0
 14 22  1  0
 26 25  2  0
 31 26  1  0
 21  8  1  0
  2  7  2  0
 30 29  2  0
  7 28  1  0
 20 12  1  0
 27 18  2  0
 29  2  1  0
  1 16  2  0
  9 23  2  0
 18  9  1  0
 25 15  1  0
 15 19  1  0
 32 27  1  0
 28  6  2  0
  8  5  1  1
 17  4  1  0
 11 21  1  0
 22 17  1  0
  8 13  1  0
 12  3  1  0
 28 22  1  0
 23 33  1  0
 32 33  2  0
 33 34  1  0
 32 35  1  0
M  END