
  SciTegic05071317052D

 32 31  0  0  0  0            999 V2000
    2.2793  -17.0715    0.0000 C   0  0
    2.2793  -17.8964    0.0000 C   0  0
    2.9913  -18.3048    0.0000 N   0  0
    3.7034  -17.8964    0.0000 C   0  0
    3.7034  -17.0715    0.0000 C   0  0
    2.9913  -16.6547    0.0000 N   0  0
    2.9917  -15.8295    0.0000 C   0  0
    3.6592  -15.3445    0.0000 N   0  0
    3.4042  -14.5593    0.0000 C   0  0
    2.5791  -14.5598    0.0000 C   0  0
    2.3243  -15.3445    0.0000 S   0  0
    3.8040  -13.8377    0.0000 C   0  0
    4.6290  -13.8230    0.0000 C   0  0
    5.0288  -13.1013    0.0000 N   0  0
    5.8536  -13.0866    0.0000 C   0  0
    4.6036  -12.3942    0.0000 C   0  0
    2.9913  -19.1298    0.0000 C   0  0
    2.2768  -19.5423    0.0000 C   0  0
    2.2768  -20.3674    0.0000 C   0  0
    5.0033  -11.6725    0.0000 C   0  0
    4.5783  -10.9655    0.0000 C   0  0
    4.9780  -10.2437    0.0000 C   0  0
    4.5529   -9.5367    0.0000 C   0  0
    4.9526   -8.8150    0.0000 C   0  0
    5.7766   -8.8057    0.0000 C   0  0
    6.1763   -8.0848    0.0000 C   0  0
    5.7510   -7.3768    0.0000 C   0  0
    4.9220   -7.3941    0.0000 C   0  0
    4.5260   -8.1155    0.0000 C   0  0
    1.7479  -10.8337    0.0000 Br  0  0
    1.6500  -12.0214    0.0000 Br  0  0
    1.4732  -13.1705    0.0000 Br  0  0
  1  2  1  0
  1  6  1  0
  2  3  1  0
  3  4  1  0
  4  5  1  0
  5  6  1  0
  7  8  2  0
  8  9  1  0
  9 10  2  0
 10 11  1  0
 11  7  1  0
  6  7  1  0
  9 12  1  0
 12 13  1  0
 13 14  1  0
 14 15  1  0
 14 16  1  0
  3 17  1  0
 17 18  1  0
 18 19  1  0
 16 20  1  0
 20 21  1  0
 21 22  1  0
 22 23  1  0
 23 24  1  0
 24 25  2  0
 25 26  1  0
 26 27  2  0
 27 28  1  0
 28 29  2  0
 29 24  1  0
M  END