
          11280714462D 1   1.00000     0.00000     0

 28 29  0     0  0            999 V2000
    3.0667   -2.8542    0.0000 C   0  0  0  0  0  0           0  0  0
    3.5917   -3.1542    0.0000 C   0  0  0  0  0  0           0  0  0
    7.2292   -4.0250    0.0000 C   0  0  0  0  0  0           0  0  0
    3.0667   -2.2500    0.0000 C   0  0  0  0  0  0           0  0  0
    7.7500   -3.7250    0.0000 C   0  0  0  0  0  0           0  0  0
    3.5875   -1.9417    0.0000 O   0  0  0  0  0  0           0  0  0
    4.1125   -2.8500    0.0000 O   0  0  0  0  0  0           0  0  0
    6.7125   -3.7292    0.0000 C   0  0  0  0  0  0           0  0  0
    7.7417   -3.1167    0.0000 C   0  0  0  0  0  0           0  0  0
    4.1042   -2.2417    0.0000 C   0  0  0  0  0  0           0  0  0
    6.7125   -3.1292    0.0000 C   0  0  0  0  0  0           0  0  0
    3.5917   -3.7542    0.0000 O   0  0  0  0  0  0           0  0  0
    4.6250   -1.9417    0.0000 C   0  0  3  0  0  0           0  0  0
    7.2250   -2.8250    0.0000 C   0  0  0  0  0  0           0  0  0
    7.2292   -4.6250    0.0000 O   0  0  0  0  0  0           0  0  0
    5.6667   -1.9375    0.0000 N   0  0  0  0  0  0           0  0  0
    2.5500   -3.1542    0.0000 C   0  0  0  0  0  0           0  0  0
    8.2667   -4.0167    0.0000 O   0  0  0  0  0  0           0  0  0
    4.6250   -1.3417    0.0000 O   0  0  0  0  0  0           0  0  0
    5.1500   -2.2375    0.0000 C   0  0  0  0  0  0           0  0  0
    2.5500   -1.9500    0.0000 C   0  0  0  0  0  0           0  0  0
    6.1875   -2.2292    0.0000 C   0  0  0  0  0  0           0  0  0
    6.1917   -2.8292    0.0000 C   0  0  0  0  0  0           0  0  0
    4.1167   -4.0500    0.0000 C   0  0  0  0  0  0           0  0  0
    7.7542   -4.9250    0.0000 C   0  0  0  0  0  0           0  0  0
    8.2750   -4.6167    0.0000 C   0  0  0  0  0  0           0  0  0
    2.0292   -2.8542    0.0000 C   0  0  0  0  0  0           0  0  0
    2.0292   -2.2500    0.0000 C   0  0  0  0  0  0           0  0  0
  2  1  1  0     0  0
  3  8  1  0     0  0
  4  1  1  0     0  0
  5  9  1  0     0  0
  6  4  1  0     0  0
  7  2  2  0     0  0
  8 11  2  0     0  0
  9 14  2  0     0  0
 10  6  1  0     0  0
 11 23  1  0     0  0
 12  2  1  0     0  0
 13 10  1  0     0  0
 14 11  1  0     0  0
 15  3  1  0     0  0
 16 20  1  0     0  0
 17  1  2  0     0  0
 18  5  1  0     0  0
 19 13  1  0     0  0
 20 13  1  0     0  0
 21  4  2  0     0  0
 22 16  1  0     0  0
 23 22  1  0     0  0
 24 12  1  0     0  0
 25 15  1  0     0  0
 26 18  1  0     0  0
 27 17  1  0     0  0
 28 27  2  0     0  0
 28 21  1  0     0  0
  5  3  2  0     0  0
M  END