
  SciTegic10301317112D

 77 81  0  0  1  0            999 V2000
    6.0950   -6.9094    0.0000 N   0  0
    5.7211   -6.1823    0.0000 C   0  0
    0.8268   -3.7891    0.0000 N   0  0
    4.8902   -6.1366    0.0000 C   0  0  1  0  0  0
    2.3973   -3.3654    0.0000 C   0  0
    4.8029   -5.3140    0.0000 N   0  0
    3.2075   -3.5316    0.0000 N   0  0
   -0.3697   -5.8582    0.0000 N   0  0
    0.2161   -4.3418    0.0000 C   0  0
    4.4747   -4.5661    0.0000 C   0  0
   -0.2825   -6.6809    0.0000 C   0  0
    7.4910   -6.4607    0.0000 C   0  0
    1.5830   -3.4526    0.0000 C   0  0  2  0  0  0
    3.9180   -3.9512    0.0000 C   0  0  2  0  0  0
    0.6025   -8.0437    0.0000 N   0  0
    6.9052   -7.0423    0.0000 C   0  0  2  0  0  0
   -0.1952   -5.0522    0.0000 C   0  0  2  0  0  0
    1.3212   -8.4550    0.0000 C   0  0
    0.0499   -7.4329    0.0000 C   0  0  1  0  0  0
    7.2709   -5.6630    0.0000 N   0  0
    4.4415   -3.3072    0.0000 C   0  0
    7.6448   -4.2794    0.0000 C   0  0
   11.4173   -4.5537    0.0000 C   0  0
    2.1231   -8.6295    0.0000 C   0  0
    4.3126   -7.6573    0.0000 S   0  0
    3.6936   -8.2057    0.0000 S   0  0
    5.2517   -3.4401    0.0000 C   0  0
    8.2306   -3.7019    0.0000 N   0  0
    2.9458   -8.5505    0.0000 C   0  0
    7.8567   -5.0772    0.0000 C   0  0  2  0  0  0
    8.6004   -2.3225    0.0000 C   0  0
   11.6292   -5.3514    0.0000 N   0  0
    6.1615   -5.4885    0.0000 O   0  0
    2.4347   -2.5427    0.0000 O   0  0
    4.7240   -6.9426    0.0000 C   0  0
    8.2887   -6.6726    0.0000 O   0  0
   -0.4238   -3.8183    0.0000 O   0  0
    5.1145   -4.3251    0.0000 O   0  0
   -1.0802   -6.8927    0.0000 O   0  0
   -0.6440   -7.8816    0.0000 C   0  0
   -0.9680   -4.7614    0.0000 C   0  0
    1.0221   -9.2278    0.0000 O   0  0
    6.8471   -4.0675    0.0000 O   0  0
    5.5882   -3.9512    0.0000 O   0  0
    9.3981   -2.5344    0.0000 O   0  0
   10.6113   -4.3418    0.0000 N   0  0
    8.0187   -2.9084    0.0000 C   0  0
   12.0031   -3.9678    0.0000 N   0  0
    1.3628   -2.6549    0.0000 C   0  0
    5.7211   -7.6448    0.0000 C   0  0
    5.7752   -2.7962    0.0000 N   0  0
   -1.3711   -7.5077    0.0000 C   0  0
    8.3885   -1.5248    0.0000 N   0  0
   -2.8419   -6.7598    0.0000 C   0  0
   -1.0969   -3.9429    0.0000 C   0  0
   -1.4167   -6.6850    0.0000 C   0  0
   -2.0649   -7.9564    0.0000 C   0  0
   -2.8003   -7.5825    0.0000 C   0  0
   -2.1521   -6.3111    0.0000 C   0  0
    7.0340   -7.8567    0.0000 C   0  0
   -3.5772   -6.3859    0.0000 O   0  0
    6.2987   -8.2306    0.0000 C   0  0
    3.7393   -8.7624    0.0000 C   0  0
    2.3599   -9.1280    0.0000 C   0  0
    8.6544   -5.2890    0.0000 C   0  0
   10.0337   -4.9234    0.0000 C   0  0
    1.9486   -2.0733    0.0000 C   0  0
    0.5734   -2.4430    0.0000 C   0  0
   -0.4570   -3.4194    0.0000 C   0  0
   -1.8655   -3.6438    0.0000 C   0  0
    9.2402   -4.7115    0.0000 C   0  0
    3.9512   -9.5601    0.0000 C   0  0
    2.5718   -9.9258    0.0000 C   0  0
   -0.5816   -2.6092    0.0000 C   0  0
   -1.9943   -2.8336    0.0000 C   0  0
    3.3654  -10.1377    0.0000 C   0  0
   -1.3544   -2.3101    0.0000 C   0  0
  2  1  1  0
  3 13  1  0
  4  2  1  6
  5  7  1  0
  6  4  1  0
  7 14  1  0
  8 11  1  0
  9  3  1  0
 10  6  1  0
 11 19  1  0
 16 12  1  6
 13  5  1  0
 14 10  1  0
 15 18  1  0
 16  1  1  0
 17  9  1  0
 18 24  1  0
 19 15  1  0
 20 12  1  0
 14 21  1  1
 22 30  1  0
 23 46  2  0
 24 29  1  0
 25 35  1  0
 26 25  1  0
 27 21  1  0
 28 22  1  0
 29 26  1  0
 30 20  1  0
 31 47  1  0
 32 23  1  0
 33  2  2  0
 34  5  2  0
 35  4  1  0
 36 12  2  0
 37  9  2  0
 38 10  2  0
 39 11  2  0
 19 40  1  1
 17 41  1  1
 42 18  2  0
 43 22  2  0
 44 27  2  0
 45 31  2  0
 46 66  1  0
 47 28  1  0
 48 23  1  0
 13 49  1  1
 50  1  1  0
 51 27  1  0
 52 40  1  0
 53 31  1  0
 54 58  2  0
 55 41  1  0
 56 52  1  0
 57 52  2  0
 58 57  1  0
 59 56  2  0
 60 16  1  0
 61 54  1  0
 62 50  1  0
 63 29  1  0
 64 29  1  0
 30 65  1  6
 66 71  1  0
 67 49  1  0
 68 49  1  0
 69 55  1  0
 70 55  2  0
 71 65  1  0
 72 63  1  0
 73 64  1  0
 74 69  2  0
 75 70  1  0
 76 73  1  0
 77 75  2  0
 60 62  1  0
 72 76  1  0
  8 17  1  0
 54 59  1  0
 74 77  1  0
M  END