
  SciTegic09291413392D

 35 39  0  0  0  0            999 V2000
    4.0928   -3.9332    0.0000 C   0  0
    4.0916   -4.7527    0.0000 C   0  0
    4.7997   -5.1617    0.0000 C   0  0
    5.5094   -4.7523    0.0000 C   0  0
    5.5065   -3.9296    0.0000 C   0  0
    4.7979   -3.5243    0.0000 C   0  0
    3.3850   -3.5248    0.0000 F   0  0
    4.7995   -5.9789    0.0000 N   0  0
    4.0904   -6.3812    0.0000 C   0  0
    4.0883   -7.1948    0.0000 C   0  0
    4.7941   -7.6074    0.0000 O   0  0
    5.5037   -7.2002    0.0000 C   0  0
    5.5075   -6.3804    0.0000 C   0  0
    6.2127   -3.5184    0.0000 C   0  0
    6.9219   -3.9243    0.0000 N   0  0
    6.2096   -2.7012    0.0000 O   0  0
    7.6281   -3.5130    0.0000 C   0  0
    9.0388   -2.6937    0.0000 C   0  0
    8.3246   -2.2880    0.0000 C   0  0
    7.6218   -2.7009    0.0000 C   0  0
    9.0414   -3.5118    0.0000 C   0  0
    8.3379   -3.9196    0.0000 C   0  0
    8.3403   -4.7309    0.0000 C   0  0
    9.0455   -5.1353    0.0000 C   0  0
    9.7497   -4.7226    0.0000 C   0  0
    9.7438   -3.9126    0.0000 C   0  0
    9.7444   -2.2815    0.0000 O   0  0
   10.4542   -2.6865    0.0000 C   0  0
   11.1598   -2.2743    0.0000 C   0  0
   11.8696   -2.6793    0.0000 N   0  0
   11.8676   -3.5012    0.0000 C   0  0
   12.5734   -3.9061    0.0000 C   0  0
   13.2814   -3.4974    0.0000 O   0  0
   13.2792   -2.6792    0.0000 C   0  0
   12.5689   -2.2698    0.0000 C   0  0
  1  2  2  0
  2  3  1  0
  3  4  2  0
  4  5  1  0
  5  6  2  0
  6  1  1  0
  1  7  1  0
  3  8  1  0
  8  9  1  0
  8 13  1  0
  9 10  1  0
 10 11  1  0
 11 12  1  0
 12 13  1  0
  5 14  1  0
 14 15  1  0
 14 16  2  0
 15 17  1  0
 17 22  2  0
 21 18  2  0
 18 19  1  0
 19 20  2  0
 20 17  1  0
 21 22  1  0
 22 23  1  0
 23 24  2  0
 24 25  1  0
 25 26  2  0
 26 21  1  0
 18 27  1  0
 27 28  1  0
 28 29  1  0
 29 30  1  0
 30 31  1  0
 30 35  1  0
 31 32  1  0
 32 33  1  0
 33 34  1  0
 34 35  1  0
M  END