
          11280714492D 1   1.00000     0.00000     0

  8  8  0     0  0            999 V2000
    1.0125   -0.7917    0.0000 N   0  0  0  0  0  0           0  0  0
    1.5292   -1.0917    0.0000 C   0  0  0  0  0  0           0  0  0
    0.4917   -1.0917    0.0000 C   0  0  0  0  0  0           0  0  0
    1.0125   -1.9917    0.0000 C   0  0  0  0  0  0           0  0  0
    0.4917   -1.6917    0.0000 C   0  0  0  0  0  0           0  0  0
    1.5292   -1.6917    0.0000 C   0  0  0  0  0  0           0  0  0
    2.0500   -0.7875    0.0000 C   0  0  0  0  0  0           0  0  0
   -0.0250   -0.7917    0.0000 C   0  0  0  0  0  0           0  0  0
  2  1  2  0     0  0
  3  1  1  0     0  0
  4  5  1  0     0  0
  5  3  2  0     0  0
  6  2  1  0     0  0
  7  2  1  0     0  0
  8  3  1  0     0  0
  6  4  2  0     0  0
M  END