
  SciTegic12231509382D

 32 34  0  0  1  0            999 V2000
    1.4792   -7.3000    0.0000 N   0  0
    2.7292   -7.3000    0.0000 C   0  0
    2.1042   -6.2292    0.0000 N   0  0
    2.1042   -7.6542    0.0000 C   0  0
    2.7292   -6.5875    0.0000 C   0  0
    1.4792   -6.5875    0.0000 C   0  0
    3.3542   -7.6542    0.0000 N   0  0
    5.2292   -4.5042    0.0000 C   0  0
    3.3542   -6.2292    0.0000 N   0  0
    5.8375   -4.1917    0.0000 N   0  0
    5.1750   -2.9750    0.0000 C   0  0
    5.8042   -3.3042    0.0000 C   0  0  2  0  0  0
    5.2167   -5.2042    0.0000 C   0  0
    3.9750   -7.3000    0.0000 C   0  0
    2.1042   -8.3625    0.0000 O   0  0
    7.6042   -2.9042    0.0000 C   0  0
    4.5792   -3.3500    0.0000 O   0  0
    4.6417   -4.1625    0.0000 O   0  0
    5.1625   -2.2792    0.0000 O   0  0
    0.8542   -6.2292    0.0000 N   0  0
    5.2125   -7.3000    0.0000 N   0  0
    7.5917   -2.2167    0.0000 O   0  0
    3.9750   -6.5875    0.0000 C   0  0
    6.4042   -2.9417    0.0000 C   0  0
    5.8167   -5.5542    0.0000 C   0  0
    4.6042   -5.5542    0.0000 C   0  0
    4.6000   -7.6542    0.0000 C   0  0
    5.2125   -6.6042    0.0000 C   0  0
    7.0042   -3.2792    0.0000 C   0  0
    8.2042   -3.2625    0.0000 O   0  0
    5.8167   -6.2667    0.0000 C   0  0
    4.6042   -6.2417    0.0000 C   0  0
  2  4  1  0
  3  6  1  0
  4  1  1  0
  5  3  1  0
  6  1  2  0
  7  2  1  0
  8 13  1  0
  9  5  1  0
 10  8  1  0
 11 12  1  0
 12 10  1  6
 13 26  1  0
 14  7  2  0
 15  4  2  0
 16 29  1  0
 17 11  1  0
 18  8  2  0
 19 11  2  0
 20  6  1  0
 21 27  1  0
 22 16  2  0
 23  9  2  0
 24 12  1  0
 25 31  1  0
 26 32  2  0
 27 14  1  0
 28 21  1  0
 29 24  1  0
 30 16  1  0
 31 28  2  0
 32 28  1  0
  5  2  2  0
 23 14  1  0
 25 13  2  0
M  END