
  SciTegic11261311332D

 40 44  0  0  0  0            999 V2000
   -8.3179    6.3738    0.0000 C   0  0
   -7.6034    5.9613    0.0000 C   0  0
   -7.6034    5.1363    0.0000 C   0  0
   -8.3179    4.7238    0.0000 C   0  0
   -9.0324    5.1363    0.0000 C   0  0
   -9.0324    5.9613    0.0000 C   0  0
   -8.3179    7.1988    0.0000 O   0  0
   -6.8890    4.7238    0.0000 C   0  0
   -9.7469    4.7238    0.0000 C   0  0
   -8.3179    3.8988    0.0000 C   0  0
   -9.0324    3.4863    0.0000 C   0  0  1  0  0  0
   -9.7469    3.8988    0.0000 C   0  0
   -9.0324    2.6613    0.0000 C   0  0
   -9.7469    2.2488    0.0000 N   0  0
   -9.7469    1.4238    0.0000 C   0  0  1  0  0  0
  -10.4613    1.0113    0.0000 C   0  0
  -11.1758    1.4238    0.0000 C   0  0
  -11.1758    2.2488    0.0000 C   0  0
  -10.4613    2.6613    0.0000 C   0  0
   -9.0324    1.0113    0.0000 C   0  0
   -8.3179    1.4238    0.0000 N   0  0
   -9.0324    0.1863    0.0000 O   0  0
   -7.6034    1.0113    0.0000 C   0  0
   -6.8890    1.4238    0.0000 C   0  0
   -6.1745    1.0113    0.0000 N   0  0
   -6.8890    2.2488    0.0000 O   0  0
   -5.4600    1.4238    0.0000 C   0  0
   -4.7456    1.0113    0.0000 C   0  0
   -4.6593    0.1909    0.0000 N   0  0
   -3.8524    0.0193    0.0000 C   0  0
   -3.4399    0.7338    0.0000 C   0  0
   -3.9919    1.3469    0.0000 N   0  0
   -2.6149    0.7338    0.0000 C   0  0
   -2.2024    0.0193    0.0000 C   0  0
   -2.6149   -0.6951    0.0000 C   0  0
   -3.4399   -0.6951    0.0000 C   0  0
  -11.8903    2.6613    0.0000 C   0  0
  -12.6047    2.2488    0.0000 C   0  0
  -12.6047    1.4238    0.0000 C   0  0
  -11.8903    1.0113    0.0000 C   0  0
  1  2  2  0
  1  6  1  0
  2  3  1  0
  3  4  2  0
  4  5  1  0
  5  6  2  0
  1  7  1  0
  3  8  1  0
  5  9  1  0
  4 10  1  0
 11 10  1  0
 11 12  1  6
 11 13  1  0
 13 14  1  0
 15 14  1  0
 19 14  1  0
 15 16  1  0
 16 17  1  0
 18 19  1  0
 15 20  1  6
 20 21  1  0
 20 22  2  0
 21 23  1  0
 23 24  1  0
 24 25  1  0
 24 26  2  0
 25 27  1  0
 27 28  1  0
 28 29  2  0
 28 32  1  0
 29 30  1  0
 31 32  1  0
 36 30  2  0
 30 31  1  0
 31 33  2  0
 33 34  1  0
 34 35  2  0
 35 36  1  0
 17 40  2  0
 17 18  1  0
 18 37  2  0
 37 38  1  0
 38 39  2  0
 39 40  1  0
M  END