
  SciTegic02271515072D

  8  8  0  0  0  0            999 V2000
   12.5191   -4.0874    0.0000 C   0  0
   12.5180   -4.9147    0.0000 C   0  0
   13.2327   -5.3276    0.0000 C   0  0
   13.2309   -3.6746    0.0000 C   0  0
   13.9462   -4.0837    0.0000 C   0  0
   13.9465   -4.9147    0.0000 C   0  0
   14.6598   -3.6696    0.0000 Se  0  0
   15.3751   -4.0806    0.0000 Cl  0  0
  1  2  2  0
  2  3  1  0
  3  6  2  0
  5  4  2  0
  4  1  1  0
  5  6  1  0
  5  7  1  0
  7  8  1  0
M  END