
          11280715032D 1   1.00000     0.00000     0

 33 35  0     0  0            999 V2000
   -1.5208   -1.7042    0.0000 S   0  0  3  0  0  0           0  0  0
    1.5917   -1.6750    0.0000 C   0  0  0  0  0  0           0  0  0
   -2.0333   -1.4042    0.0000 C   0  0  0  0  0  0           0  0  0
    2.1125   -1.3667    0.0000 C   0  0  3  0  0  0           0  0  0
   -2.0125   -2.3292    0.0000 O   0  0  0  0  0  0           0  0  0
   -1.1708   -2.3000    0.0000 O   0  0  0  0  0  0           0  0  0
   -1.0000   -1.4000    0.0000 N   0  0  0  0  0  0           0  0  0
    1.6000   -2.2792    0.0000 C   0  0  0  0  0  0           0  0  0
    1.0750   -1.3792    0.0000 C   0  0  0  0  0  0           0  0  0
    1.6125   -4.0792    0.0000 C   0  0  0  0  0  0           0  0  0
    2.6292   -1.6625    0.0000 C   0  0  0  0  0  0           0  0  0
    1.0792   -2.5792    0.0000 C   0  0  0  0  0  0           0  0  0
    1.0917   -4.3792    0.0000 O   0  0  0  0  0  0           0  0  0
    0.5542   -1.6875    0.0000 C   0  0  0  0  0  0           0  0  0
   -2.0333   -0.8000    0.0000 C   0  0  0  0  0  0           0  0  0
   -2.5583   -1.7042    0.0000 C   0  0  0  0  0  0           0  0  0
    2.6417   -2.2625    0.0000 C   0  0  0  0  0  0           0  0  0
    3.1417   -1.3542    0.0000 C   0  0  0  0  0  0           0  0  0
    0.5625   -2.2875    0.0000 C   0  0  0  0  0  0           0  0  0
    1.6042   -3.4792    0.0000 C   0  0  0  0  0  0           0  0  0
    3.6792   -2.2500    0.0000 C   0  0  0  0  0  0           0  0  0
   -3.0708   -0.8042    0.0000 C   0  0  0  0  0  0           0  0  0
    1.0875   -3.1792    0.0000 C   0  0  0  0  0  0           0  0  0
    2.1292   -4.3750    0.0000 O   0  0  0  0  0  0           0  0  0
    2.1042   -0.7667    0.0000 O   0  0  0  0  0  0           0  0  0
   -3.0708   -1.4042    0.0000 C   0  0  0  0  0  0           0  0  0
    3.6667   -1.6417    0.0000 C   0  0  0  0  0  0           0  0  0
   -2.5583   -0.5000    0.0000 C   0  0  0  0  0  0           0  0  0
    3.1625   -2.5542    0.0000 C   0  0  0  0  0  0           0  0  0
   -3.5958   -0.5000    0.0000 Cl  0  0  0  0  0  0           0  0  0
    4.1917   -2.5500    0.0000 F   0  0  0  0  0  0           0  0  0
   -0.4833   -1.6917    0.0000 C   0  0  0  0  0  0           0  0  0
    0.0375   -1.3917    0.0000 C   0  0  0  0  0  0           0  0  0
  2  9  2  0     0  0
  3  1  1  0     0  0
  4  2  1  0     0  0
  5  1  2  0     0  0
  6  1  2  0     0  0
  7  1  1  0     0  0
  8 12  2  0     0  0
  9 14  1  0     0  0
 10 20  1  0     0  0
 11  4  1  0     0  0
 12 19  1  0     0  0
 13 10  2  0     0  0
 14 33  1  0     0  0
 15  3  1  0     0  0
 16  3  2  0     0  0
 17 11  2  0     0  0
 18 11  1  0     0  0
 19 14  2  0     0  0
 20 23  1  0     0  0
 21 27  1  0     0  0
 22 26  2  0     0  0
 23 12  1  0     0  0
 24 10  1  0     0  0
 25  4  1  0     0  0
 26 16  1  0     0  0
 27 18  2  0     0  0
 28 15  2  0     0  0
 29 17  1  0     0  0
 30 22  1  0     0  0
 31 21  1  0     0  0
 32  7  1  0     0  0
 33 32  1  0     0  0
 22 28  1  0     0  0
  2  8  1  0     0  0
 21 29  2  0     0  0
M  END