
  SciTegic09171211542D

119115  0  0  0  0            999 V2000
   -0.7875   -9.4292    0.0000 O   0  0
   -0.3708  -10.1458    0.0000 S   0  0
    0.0415   -9.4267    0.0000 O   0  0
    3.2795  -12.8642    0.0000 O   0  0
    2.4784  -12.6680    0.0000 S   0  0
    2.7091  -13.4599    0.0000 O   0  0
   -2.3850  -13.3554    0.0000 O   0  0
   -1.8097  -12.7643    0.0000 S   0  0
   -2.6093  -12.5617    0.0000 O   0  0
   -3.1253  -12.1211    0.0000 O   0  0
   -2.5501  -11.5300    0.0000 S   0  0
   -3.3496  -11.3274    0.0000 O   0  0
   -1.6065  -16.4639    0.0000 O   0  0
   -2.4316  -16.4830    0.0000 S   0  0
   -2.0025  -17.1881    0.0000 O   0  0
    0.1168  -16.1135    0.0000 O   0  0
   -0.2794  -16.8371    0.0000 S   0  0
    0.5454  -16.8184    0.0000 O   0  0
    0.6779  -14.4475    0.0000 O   0  0
    1.1048  -15.1557    0.0000 S   0  0
    1.5046  -14.4318    0.0000 O   0  0
   -4.3038  -14.7877    0.0000 O   0  0
   -3.9029  -14.0667    0.0000 S   0  0
   -1.7485  -15.2291    0.0000 C   0  0  1  0  0  0
   -1.0241  -15.6239    0.0000 C   0  0  1  0  0  0
   -0.3248  -15.1942    0.0000 C   0  0  1  0  0  0
   -0.3425  -14.3736    0.0000 C   0  0  2  0  0  0
   -1.0669  -13.9787    0.0000 O   0  0
   -1.7735  -14.4045    0.0000 C   0  0  2  0  0  0
   -2.4965  -14.0053    0.0000 C   0  0
   -3.1775  -14.4683    0.0000 O   0  0
   -3.9118  -13.2425    0.0000 O   0  5
   -1.0026  -16.4487    0.0000 O   0  0
    0.3996  -15.5890    0.0000 O   0  0
    0.3622  -13.9447    0.0000 O   0  0
    0.3432  -13.1199    0.0000 C   0  0  2  0  0  0
    1.0495  -12.6962    0.0000 C   0  0  1  0  0  0
    1.0326  -11.8750    0.0000 C   0  0  2  0  0  0
    0.3105  -11.4752    0.0000 O   0  0
   -0.3961  -11.9029    0.0000 C   0  0  1  0  0  0
   -0.3807  -12.7304    0.0000 C   0  0  1  0  0  0
   -1.1186  -11.5045    0.0000 C   0  0
   -1.0849  -13.1601    0.0000 O   0  0
    1.7716  -13.0953    0.0000 O   0  0
   -1.8248  -11.9310    0.0000 O   0  0
   -2.5635  -10.7078    0.0000 O   0  5
   -2.4513  -15.6611    0.0000 O   0  0
    2.4628  -11.8446    0.0000 O   0  5
    1.8281  -15.5540    0.0000 O   0  5
   -0.2563  -17.6672    0.0000 O   0  5
   -3.1315  -16.9177    0.0000 O   0  5
    1.7547  -12.2718    0.0000 H   0  0
   -0.3600  -13.5437    0.0000 H   0  0
   -1.4135  -12.0407    0.0000 O   0  5
   -4.7262  -14.0732    0.0000 O   0  0
    1.7233  -11.4315    0.0000 O   0  0
    3.1945  -10.6325    0.0000 O   0  0
    3.9083   -9.3958    0.0000 C   0  0
    3.9083  -10.2208    0.0000 C   0  0  1  0  0  0
    4.6204  -10.6292    0.0000 C   0  0
    4.6204   -8.9792    0.0000 C   0  0
    5.3324   -9.3958    0.0000 C   0  0  1  0  0  0
    5.3289  -10.2208    0.0000 C   0  0  1  0  0  0
    6.0376  -10.6341    0.0000 C   0  0
    6.7544  -10.2269    0.0000 C   0  0
    6.0446   -8.9841    0.0000 C   0  0  2  0  0  0
    6.7541   -9.4044    0.0000 C   0  0  2  0  0  0
    6.7710   -7.7582    0.0000 C   0  0
    6.0500   -8.1618    0.0000 C   0  0
    7.4804   -8.1785    0.0000 C   0  0  1  0  0  0
    7.4714   -9.0001    0.0000 C   0  0  1  0  0  0
    8.2500   -9.2625    0.0000 C   0  0
    8.7402   -8.6030    0.0000 C   0  0
    8.2645   -7.9332    0.0000 C   0  0  2  0  0  0
    5.3250   -8.5708    0.0000 C   0  0
    6.0375   -9.8083    0.0000 H   0  0
    6.7458   -8.5792    0.0000 H   0  0
    7.4667   -9.8250    0.0000 H   0  0
    7.4750   -7.3500    0.0000 C   0  0
    8.5279   -7.1514    0.0000 C   0  0  1  0  0  0
    9.3367   -6.9886    0.0000 C   0  0
    7.9826   -6.5324    0.0000 C   0  0
    9.8820   -7.6077    0.0000 C   0  0
   10.6908   -7.4449    0.0000 C   0  0
   11.2362   -8.0640    0.0000 C   0  0
   12.0450   -7.9012    0.0000 C   0  0
   10.9727   -8.8458    0.0000 C   0  0
    9.0875   -7.9292    0.0000 H   0  0
    5.3208  -11.0417    0.0000 H   0  0
    3.6440   -8.8917    0.0000 O   0  0
    3.2471   -8.1680    0.0000 S   0  0
    2.8188   -8.8736    0.0000 O   0  0
   -0.4002   -7.8675    0.0000 O   0  0
    0.3894   -8.1060    0.0000 S   0  0
    0.2011   -7.3030    0.0000 O   0  0
    0.3335  -10.5802    0.0000 O   0  0
    1.0601  -10.1875    0.0000 C   0  0  1  0  0  0
    2.4844  -10.2115    0.0000 C   0  0  1  0  0  0
    2.5027   -9.3885    0.0000 O   0  0
    1.7992   -8.9645    0.0000 C   0  0  1  0  0  0
    1.0757   -9.3617    0.0000 C   0  0  1  0  0  0
    1.7681  -10.6161    0.0000 C   0  0  1  0  0  0
    1.8158   -8.1397    0.0000 C   0  0
    2.5384   -7.7417    0.0000 O   0  0
    3.9671   -7.7705    0.0000 O   0  5
    0.3696   -8.9349    0.0000 O   0  0
    1.1172   -7.7092    0.0000 O   0  5
    2.4637  -11.0350    0.0000 H   0  0
   -1.0949  -10.5399    0.0000 O   0  5
    5.8750  -12.5312    0.0000 Na  0  3
    7.0625  -12.4687    0.0000 Na  0  3
    8.1563  -12.5312    0.0000 Na  0  3
    9.3125  -12.5625    0.0000 Na  0  3
    6.6563  -13.2500    0.0000 Na  0  3
    7.5938  -13.2812    0.0000 Na  0  3
    8.6250  -13.2812    0.0000 Na  0  3
    7.3125  -14.0313    0.0000 Na  0  3
    8.2500  -14.1562    0.0000 Na  0  3
    7.9062  -15.0312    0.0000 Na  0  3
 30 31  1  0
 23 55  2  0
 31 23  1  0
 38 56  1  0
 20 19  2  0
 58 59  1  0
 23 32  1  0
 21 20  2  0
 25 33  1  1
  2  1  2  0
 58 61  1  0
 59 60  1  0
 60 63  1  0
 62 61  1  0
 62 63  1  0
 26 34  1  1
  3  2  2  0
 27 35  1  0
  8  7  2  0
 62 66  1  0
 63 64  1  0
 64 65  1  0
 65 67  1  0
 66 67  1  0
 36 35  1  1
 36 37  1  0
 23 22  2  0
 14 13  2  0
 66 69  1  0
 67 71  1  0
 70 68  1  0
 68 69  1  0
 70 71  1  0
 15 14  2  0
 24 25  1  0
  9  8  2  0
 36 41  1  0
 37 38  1  0
 71 72  1  0
 72 73  1  0
 73 74  1  0
 74 70  1  0
 59 57  1  1
 38 39  1  0
 62 75  1  1
 39 40  1  0
 66 76  1  6
 40 41  1  0
 67 77  1  1
  5  4  2  0
 71 78  1  6
 40 42  1  1
 70 79  1  1
  6  5  2  0
 74 80  1  0
 41 43  1  6
 80 81  1  0
 17 16  2  0
 80 82  1  6
 37 44  1  1
 81 83  1  0
 18 17  2  0
 83 84  1  0
 42 45  1  0
 84 85  1  0
 45 11  1  0
 85 86  1  0
 85 87  1  0
 11 46  1  0
 74 88  1  6
 24 29  1  0
 63 89  1  6
 91 90  2  0
 92 91  2  0
 24 47  1  6
 44  5  1  0
 25 26  1  0
 94 93  2  0
 95 94  2  0
  5 48  1  0
 34 20  1  0
 26 27  1  0
 20 49  1  0
 33 17  1  0
 97 96  1  1
 27 28  1  0
 57 98  1  0
 98 99  1  0
 17 50  1  0
 47 14  1  0
 28 29  1  0
 14 51  1  0
 98102  1  0
 99100  1  0
100101  1  0
101 97  1  0
 97102  1  0
102 56  1  1
 11 10  2  0
100103  1  1
 38 52  1  1
103104  1  0
104 91  1  0
 29 30  1  1
 91105  1  0
 27 53  1  1
101106  1  6
106 94  1  0
 43  8  1  0
 94107  1  0
 12 11  2  0
 98108  1  1
 96  2  1  0
  8 54  1  0
  2109  1  0
M  CHG  8  32  -1  46  -1  48  -1  49  -1  50  -1  51  -1  54  -1 105  -1
M  CHG  8 107  -1 109  -1 110   1 111   1 112   1 113   1 114   1 115   1
M  CHG  4 116   1 117   1 118   1 119   1
M  END