
  SciTegic06181315362D

 34 38  0  0  0  0            999 V2000
    0.2545   -4.3294    0.0000 N   0  0
    0.2533   -5.1490    0.0000 C   0  0
    0.9614   -5.5579    0.0000 N   0  0
    0.9596   -3.9206    0.0000 C   0  0
    1.6682   -4.3258    0.0000 C   0  0
    1.6685   -5.1490    0.0000 C   0  0
    2.4514   -5.4032    0.0000 N   0  0
    2.9351   -4.7370    0.0000 C   0  0
    2.4510   -4.0713    0.0000 N   0  0
    0.9571   -3.1034    0.0000 O   0  0
    1.6636   -2.6927    0.0000 C   0  0
    2.3704   -3.1015    0.0000 C   0  0
    3.0764   -2.6915    0.0000 C   0  0
    3.0744   -1.8734    0.0000 C   0  0
    2.3605   -1.4671    0.0000 C   0  0
    1.6575   -1.8795    0.0000 C   0  0
    3.7804   -1.4618    0.0000 N   0  0
    4.4899   -1.8673    0.0000 C   0  0
    5.1958   -1.4557    0.0000 C   0  0
    4.4934   -2.6845    0.0000 O   0  0
    5.9042   -1.8676    0.0000 C   0  0
    6.6081   -1.4595    0.0000 N   0  0
    6.6088   -0.6419    0.0000 C   0  0
    5.8994   -0.2342    0.0000 C   0  0
    5.1894   -0.6440    0.0000 C   0  0
    5.9038   -2.6848    0.0000 O   0  0
    7.3120   -1.8696    0.0000 C   0  0
    7.3111   -2.6879    0.0000 C   0  0
    8.0182   -3.0960    0.0000 C   0  0
    8.7267   -2.6870    0.0000 C   0  0
    8.7236   -1.8656    0.0000 C   0  0
    8.0160   -1.4611    0.0000 C   0  0
    9.4352   -3.0943    0.0000 F   0  0
    0.9468   -1.4760    0.0000 F   0  0
  1  2  1  0
  2  3  2  0
  3  6  1  0
  5  4  1  0
  4  1  2  0
  5  6  2  0
  6  7  1  0
  7  8  1  0
  8  9  2  0
  9  5  1  0
  4 10  1  0
 10 11  1  0
 11 12  2  0
 12 13  1  0
 13 14  2  0
 14 15  1  0
 15 16  2  0
 16 11  1  0
 14 17  1  0
 17 18  1  0
 18 19  1  0
 18 20  2  0
 19 21  1  0
 19 25  2  0
 21 22  1  0
 22 23  1  0
 23 24  2  0
 24 25  1  0
 21 26  2  0
 27 28  2  0
 28 29  1  0
 29 30  2  0
 30 31  1  0
 31 32  2  0
 32 27  1  0
 22 27  1  0
 30 33  1  0
 16 34  1  0
M  END