
  SciTegic12121611432D

 22 26  0  0  0  0            999 V2000
    3.7124   -1.5269    0.0000 C   0  0
    5.0746   -2.3203    0.0000 C   0  0
    2.3652   -2.3502    0.0000 C   0  0
    3.1735   -2.6646    0.0000 C   0  0
    5.0746   -3.9070    0.0000 C   0  0
    4.2214   -3.2933    0.0000 C   0  0
    3.7124   -4.7004    0.0000 N   0  0
    2.3502   -3.9220    0.0000 C   0  0
    1.0179   -1.5568    0.0000 N   0  0
   -0.3258   -2.1984    0.0000 C   0  0
   -1.3460   -1.0988    0.0000 C   0  0
   -0.6155    0.2113    0.0000 N   0  0
    0.8562   -0.0786    0.0000 N   0  0
   -2.8360   -1.2780    0.0000 C   0  0
   -3.5152   -2.6056    0.0000 C   0  0
   -5.0327   -2.6876    0.0000 C   0  0
   -3.6512    0.0051    0.0000 C   0  0
   -5.1525   -0.0853    0.0000 C   0  0
   -5.8349   -1.4154    0.0000 C   0  0
   -7.3082   -1.1718    0.0000 N   0  0
   -7.5293    0.3145    0.0000 C   0  0
   -6.2097    0.9694    0.0000 C   0  0
  1  2  1  0
  1  3  1  0
  1  4  1  0
  2  5  1  0
  4  6  1  0
  5  7  1  0
  6  7  1  0
  7  8  1  0
  3  8  1  0
  9 10  1  0
 10 11  2  0
 11 12  1  0
 12 13  2  0
 13  9  1  0
  3  9  1  0
 14 15  2  0
 15 16  1  0
 16 19  2  0
 18 17  2  0
 17 14  1  0
 11 14  1  0
 18 19  1  0
 19 20  1  0
 20 21  1  0
 21 22  2  0
 22 18  1  0
M  END