
  Mrv0541 04051115152D          

 12 12  0  0  0  0            999 V2000
   -0.2318    1.6627    0.0000 C   0  0  0  0  0  0  0  0  0  0  0  0
    0.4827   -0.3998    0.0000 C   0  0  0  0  0  0  0  0  0  0  0  0
   -0.9463   -0.3998    0.0000 C   0  0  0  0  0  0  0  0  0  0  0  0
   -0.9463    2.0752    0.0000 C   0  0  0  0  0  0  0  0  0  0  0  0
    1.1971   -0.8123    0.0000 C   0  0  0  0  0  0  0  0  0  0  0  0
    1.9116   -2.0498    0.0000 N   0  0  0  0  0  0  0  0  0  0  0  0
   -1.6608    0.8377    0.0000 O   0  0  0  0  0  0  0  0  0  0  0  0
   -0.9463    0.4252    0.0000 C   0  0  0  0  0  0  0  0  0  0  0  0
   -0.2318   -0.8123    0.0000 C   0  0  0  0  0  0  0  0  0  0  0  0
    1.1971   -1.6373    0.0000 C   0  0  0  0  0  0  0  0  0  0  0  0
    0.4827    0.4252    0.0000 C   0  0  0  0  0  0  0  0  0  0  0  0
   -0.2318    0.8377    0.0000 C   0  0  0  0  0  0  0  0  0  0  0  0
  1  4  1  0  0  0  0
 12  1  1  0  0  0  0
  5  2  1  0  0  0  0
  2  9  2  0  0  0  0
 11  2  1  0  0  0  0
  8  3  2  0  0  0  0
  3  9  1  0  0  0  0
  5 10  1  0  0  0  0
 10  6  1  0  0  0  0
  8  7  1  0  0  0  0
 12  8  1  0  0  0  0
 12 11  2  0  0  0  0
M  END