
  SciTegic10191216022D

 28 32  0  0  0  0            999 V2000
    2.2677  -10.7624    0.0000 C   0  0
    2.9090  -10.0788    0.0000 C   0  0
    3.0722  -10.5374    0.0000 C   0  0
    3.6203  -10.3414    0.0000 C   0  0
    3.8249  -10.8402    0.0000 C   0  0
    4.3682  -10.1559    0.0000 C   0  0
    3.0653   -9.6891    0.0000 C   0  0
    3.6261   -9.0270    0.0000 C   0  0
    2.9045   -9.2834    0.0000 C   0  0
    4.3740   -9.3370    0.0000 C   0  0
    3.6208   -8.2000    0.0000 C   0  0
    4.3327   -7.7830    0.0000 N   0  0
    5.0497   -8.1910    0.0000 C   0  0
    5.7616   -7.7739    0.0000 C   0  0
    5.0550   -9.0159    0.0000 O   0  0
    6.4760   -8.1825    0.0000 C   0  0
    7.1873   -7.7662    0.0000 C   0  0
    7.1826   -6.9404    0.0000 C   0  0
    6.4605   -6.5326    0.0000 C   0  0
    5.7521   -6.9512    0.0000 C   0  0
    6.4801   -9.0075    0.0000 Cl  0  0
    6.4523   -5.7076    0.0000 N   0  0
    7.1627   -5.2881    0.0000 C   0  0
    7.8844   -5.6979    0.0000 C   0  0
    8.5926   -5.2819    0.0000 N   0  0
    8.5888   -4.4565    0.0000 C   0  0
    7.8704   -4.0489    0.0000 C   0  0
    7.1559   -4.4666    0.0000 C   0  0
 12 13  1  0
  2  4  1  0
 13 14  1  0
  3  5  1  0
 13 15  2  0
  4  6  1  0
 14 16  2  0
  5  6  1  0
 16 17  1  0
  7  8  1  0
 17 18  2  0
  3  7  1  0
 18 19  1  0
  2  9  1  0
 19 20  2  0
 20 14  1  0
  6 10  1  0
 16 21  1  0
 10  8  1  0
 19 22  1  0
  8  9  1  0
 23 22  1  0
 23 24  1  0
  8 11  1  0
  1  2  1  0
 11 12  1  0
  1  3  1  0
 23 28  1  0
 24 25  1  0
 25 26  1  0
 26 27  1  0
 27 28  1  0
M  END