
  SciTegic04191613082D

 27 29  0  0  0  0            999 V2000
   -2.3155    0.7475    0.0000 C   0  0  1  0  0  0
   -2.3155   -0.7475    0.0000 C   0  0
   -1.0028   -1.5132    0.0000 C   0  0
   -1.0028    1.5132    0.0000 C   0  0
    0.2917    0.7475    0.0000 C   0  0
    0.2917   -0.7475    0.0000 C   0  0
    1.7138   -1.2033    0.0000 N   0  0
    2.5889    0.0182    0.0000 C   0  0
    1.7138    1.2033    0.0000 S   0  0
    4.0872    0.0382    0.0000 N   0  0
   -3.6217    1.4865    0.0000 N   0  0
   -4.9153    0.7255    0.0000 C   0  0
   -6.2216    1.4644    0.0000 C   0  0
   -4.9050   -0.4745    0.0000 O   0  0
   -7.5687    0.8342    0.0000 N   0  0
   -8.5800    1.9420    0.0000 C   0  0
   -7.8388    3.2461    0.0000 C   0  0
   -6.3695    2.9443    0.0000 C   0  0
   -9.7725    1.8085    0.0000 Br  0  0
   -8.3343    4.3391    0.0000 Br  0  0
    4.8208    1.3475    0.0000 C   0  0
    6.3215    1.3677    0.0000 C   0  0
    4.2072    2.3788    0.0000 O   0  0
    7.0552    2.6770    0.0000 C   0  0
    8.5559    2.6972    0.0000 O   0  0
    6.4416    3.7083    0.0000 O   0  0
    9.1425    3.7441    0.0000 C   0  0
  1  2  1  0
  1  4  1  0
  2  3  1  0
  3  6  1  0
  5  4  1  0
  5  6  2  0
  6  7  1  0
  7  8  2  0
  8  9  1  0
  9  5  1  0
  8 10  1  0
  1 11  1  6
 11 12  1  0
 12 13  1  0
 12 14  2  0
 13 15  1  0
 15 16  1  0
 16 17  2  0
 17 18  1  0
 18 13  2  0
 16 19  1  0
 17 20  1  0
 10 21  1  0
 21 22  1  0
 21 23  2  0
 22 24  1  0
 24 25  1  0
 24 26  2  0
 25 27  1  0
M  END