
          11280714442D 1   1.00000     0.00000     0

 20 20  0     0  0            999 V2000
    5.0625   -1.4292    0.0000 C   0  0  0  0  0  0           0  0  0
    5.8792   -1.4125    0.0000 C   0  0  0  0  0  0           0  0  0
   10.4375   -2.0417    0.0000 C   0  0  0  0  0  0           0  0  0
   11.2625   -2.0417    0.0000 C   0  0  0  0  0  0           0  0  0
    6.3125   -2.1167    0.0000 O   0  0  0  0  0  0           0  0  0
    9.6125   -2.0417    0.0000 C   0  0  3  0  0  0           0  0  0
    4.6292   -0.7250    0.0000 C   0  0  0  0  0  0           0  0  0
    8.7875   -2.0625    0.0000 N   0  0  0  0  0  0           0  0  0
    6.2792   -0.6875    0.0000 O   0  0  0  0  0  0           0  0  0
    7.5667   -2.8042    0.0000 C   0  0  3  0  0  0           0  0  0
    7.1375   -2.1000    0.0000 C   0  0  0  0  0  0           0  0  0
    8.3917   -2.7875    0.0000 C   0  0  0  0  0  0           0  0  0
    5.0292   -0.0042    0.0000 F   0  0  0  0  0  0           0  0  0
    4.6667   -2.1542    0.0000 C   0  0  0  0  0  0           0  0  0
    7.1667   -3.5292    0.0000 O   0  0  0  0  0  0           0  0  0
   10.0417   -2.7500    0.0000 C   0  0  0  0  0  0           0  0  0
   10.0042   -1.3167    0.0000 C   0  0  0  0  0  0           0  0  0
    3.8042   -0.7417    0.0000 C   0  0  0  0  0  0           0  0  0
    3.8292   -2.1667    0.0000 C   0  0  0  0  0  0           0  0  0
    3.4042   -1.4625    0.0000 C   0  0  0  0  0  0           0  0  0
  2  1  1  0     0  0
  3  6  1  0     0  0
  4  3  3  0     0  0
  5  2  1  0     0  0
  6  8  1  0     0  0
  7  1  1  0     0  0
  8 12  1  0     0  0
  9  2  2  0     0  0
 10 11  1  0     0  0
 11  5  1  0     0  0
 12 10  1  0     0  0
 13  7  1  0     0  0
 14  1  2  0     0  0
 15 10  1  0     0  0
 16  6  1  0     0  0
 17  6  1  0     0  0
 18  7  2  0     0  0
 19 14  1  0     0  0
 20 19  2  0     0  0
 20 18  1  0     0  0
M  END