
  SciTegic06051313522D

 27 29  0  0  0  0            999 V2000
    1.6568  -20.4426    0.0000 C   0  0
    1.6557  -21.2699    0.0000 C   0  0
    2.3705  -21.6828    0.0000 C   0  0
    3.0869  -21.2695    0.0000 C   0  0
    3.0841  -20.4389    0.0000 C   0  0
    2.3687  -20.0298    0.0000 C   0  0
    3.7970  -20.0237    0.0000 C   0  0
    4.5130  -20.4336    0.0000 C   0  0
    4.5127  -21.2562    0.0000 C   0  0
    5.2279  -21.6659    0.0000 C   0  0
    5.9418  -21.2507    0.0000 C   0  0
    5.9360  -20.4214    0.0000 C   0  0
    5.2203  -20.0154    0.0000 N   0  0
    3.8020  -21.6808    0.0000 O   0  0
    3.8033  -22.5058    0.0000 C   0  0
    4.5184  -22.9172    0.0000 C   0  0
    4.5151  -23.7395    0.0000 C   0  0
    5.2294  -24.1508    0.0000 C   0  0
    5.9442  -23.7372    0.0000 C   0  0
    5.9402  -22.9079    0.0000 C   0  0
    5.2254  -22.5003    0.0000 C   0  0
    3.8000  -24.1510    0.0000 F   0  0
    6.6599  -24.1476    0.0000 Cl  0  0
    0.9409  -20.0302    0.0000 Cl  0  0
    6.6497  -20.0031    0.0000 C   0  0
    7.3671  -20.4103    0.0000 N   0  0
    6.6436  -19.1781    0.0000 O   0  0
  1  2  2  0
  2  3  1  0
  3  4  2  0
  4  5  1  0
  5  6  2  0
  6  1  1  0
  5  7  1  0
  7  8  1  0
  8  9  2  0
  9 10  1  0
 10 11  2  0
 11 12  1  0
 12 13  2  0
 13  8  1  0
  4 14  1  0
 14 15  1  0
 15 16  1  0
 16 17  2  0
 17 18  1  0
 18 19  2  0
 19 20  1  0
 20 21  2  0
 21 16  1  0
 17 22  1  0
 19 23  1  0
  1 24  1  0
 25 26  1  0
 25 27  2  0
 12 25  1  0
M  END