
  SciTegic09291413392D

 28 27  0  0  0  0            999 V2000
   11.3221   -9.4142    0.0000 Br  0  5
   12.8697  -13.4011    0.0000 Br  0  5
   11.9549  -10.6075    0.0000 C   0  0
   13.3391  -10.6233    0.0000 C   0  0
   14.0193  -11.0154    0.0000 C   0  0
   14.0193  -11.7954    0.0000 C   0  0
   13.3391  -12.1875    0.0000 C   0  0
   12.6630  -11.7954    0.0000 C   0  0
   12.6630  -11.0154    0.0000 N   0  3
   15.3756  -11.0112    0.0000 C   0  0
   16.0516  -10.6192    0.0000 C   0  0
   15.3756  -11.7995    0.0000 O   0  0
   14.6954  -10.6192    0.0000 N   0  0
   16.7318  -11.0112    0.0000 N   0  0
   17.4079  -10.6192    0.0000 O   0  0
    9.8593  -10.9991    0.0000 C   0  0
    9.1791  -10.6070    0.0000 C   0  0
    9.1791   -9.8228    0.0000 C   0  0
    9.8593   -9.4307    0.0000 C   0  0
   10.5395   -9.8228    0.0000 C   0  0
   10.5395  -10.6070    0.0000 N   0  3
    7.8228  -10.6070    0.0000 C   0  0
    7.1468  -10.9991    0.0000 C   0  0
    7.8228   -9.8228    0.0000 O   0  0
    8.5030  -10.9991    0.0000 N   0  0
    6.4666  -10.6070    0.0000 N   0  0
    5.7905  -10.9991    0.0000 O   0  0
   11.2471  -11.0158    0.0000 C   0  0
  4  5  1  0
  5  6  2  0
  6  7  1  0
  7  8  2  0
  8  9  1  0
  4  9  2  0
 10 11  1  0
 10 12  2  0
 10 13  1  0
 14 15  1  0
 11 14  2  0
  5 13  1  0
  9  3  1  0
 16 17  1  0
 17 18  2  0
 18 19  1  0
 19 20  2  0
 20 21  1  0
 16 21  2  0
 22 23  1  0
 22 24  2  0
 22 25  1  0
 26 27  1  0
 23 26  2  0
 17 25  1  0
 21 28  1  0
 28  3  1  0
M  CHG  4   1  -1   2  -1   9   1  21   1
M  END