
          11280714452D 1   1.00000     0.00000     0

 35 39  0     0  0            999 V2000
   10.6417   -0.3917    0.0000 N   0  0  0  0  0  0           0  0  0
   10.2417   -1.6542    0.0000 C   0  0  0  0  0  0           0  0  0
    9.8250   -0.3917    0.0000 N   0  0  0  0  0  0           0  0  0
   10.9042   -1.1750    0.0000 N   0  0  0  0  0  0           0  0  0
    9.5292   -3.7250    0.0000 C   0  0  0  0  0  0           0  0  0
    9.5667   -1.1792    0.0000 N   0  0  0  0  0  0           0  0  0
    2.4042   -2.9042    0.0000 N   0  0  0  0  0  0           0  0  0
    9.5292   -2.9000    0.0000 C   0  0  0  0  0  0           0  0  0
   10.2417   -2.4792    0.0000 C   0  0  0  0  0  0           0  0  0
    1.6875   -2.5000    0.0000 C   0  0  0  0  0  0           0  0  0
    8.8167   -4.1292    0.0000 C   0  0  0  0  0  0           0  0  0
    8.1042   -3.7250    0.0000 C   0  0  0  0  0  0           0  0  0
    0.9792   -2.9167    0.0000 C   0  0  0  0  0  0           0  0  0
   10.2417   -4.1292    0.0000 C   0  0  0  0  0  0           0  0  0
    7.3875   -4.1292    0.0000 C   0  0  0  0  0  0           0  0  0
    3.8250   -2.9042    0.0000 C   0  0  0  0  0  0           0  0  0
    4.5375   -2.4875    0.0000 C   0  0  0  0  0  0           0  0  0
    3.1042   -2.4917    0.0000 C   0  0  0  0  0  0           0  0  0
    1.6792   -1.6667    0.0000 C   0  0  0  0  0  0           0  0  0
   10.9542   -2.8917    0.0000 C   0  0  0  0  0  0           0  0  0
    8.8167   -4.9625    0.0000 O   0  0  0  0  0  0           0  0  0
   10.9542   -3.7250    0.0000 C   0  0  0  0  0  0           0  0  0
    0.2542   -2.5125    0.0000 C   0  0  0  0  0  0           0  0  0
    2.4000   -1.2542    0.0000 C   0  0  0  0  0  0           0  0  0
    0.9667   -1.2625    0.0000 C   0  0  0  0  0  0           0  0  0
    6.6750   -3.7250    0.0000 C   0  0  0  0  0  0           0  0  0
    5.2542   -2.9000    0.0000 C   0  0  0  0  0  0           0  0  0
    3.1125   -1.6667    0.0000 C   0  0  0  0  0  0           0  0  0
    0.2500   -1.6792    0.0000 C   0  0  0  0  0  0           0  0  0
   -0.4583   -2.9292    0.0000 Cl  0  0  0  0  0  0           0  0  0
   10.2417   -4.9625    0.0000 O   0  0  0  0  0  0           0  0  0
    5.9667   -2.4792    0.0000 C   0  0  0  0  0  0           0  0  0
    5.9667   -4.1292    0.0000 C   0  0  0  0  0  0           0  0  0
    6.6792   -2.8917    0.0000 C   0  0  0  0  0  0           0  0  0
    5.2542   -3.7250    0.0000 C   0  0  0  0  0  0           0  0  0
  2  4  1  0     0  0
  3  1  1  0     0  0
  4  1  2  0     0  0
  5  8  2  0     0  0
  6  3  1  0     0  0
  7 18  2  0     0  0
  8  9  1  0     0  0
  9  2  1  0     0  0
 10  7  1  0     0  0
 11  5  1  0     0  0
 12 11  1  0     0  0
 13 10  2  0     0  0
 14 22  2  0     0  0
 15 12  2  0     0  0
 16 17  2  0     0  0
 17 27  1  0     0  0
 18 16  1  0     0  0
 19 24  1  0     0  0
 20  9  2  0     0  0
 21 11  2  0     0  0
 22 20  1  0     0  0
 23 13  1  0     0  0
 24 28  2  0     0  0
 25 19  2  0     0  0
 26 15  1  0     0  0
 27 32  1  0     0  0
 28 18  1  0     0  0
 29 25  1  0     0  0
 30 23  1  0     0  0
 31 14  1  0     0  0
 32 34  2  0     0  0
 33 26  2  0     0  0
 34 26  1  0     0  0
 35 33  1  0     0  0
  2  6  2  0     0  0
 14  5  1  0     0  0
 27 35  2  0     0  0
 19 10  1  0     0  0
 29 23  2  0     0  0
M  END