
          11280715042D 1   1.00000     0.00000     0

 20 21  0     0  0            999 V2000
    1.1417   -0.2167    0.0000 S   0  0  3  0  0  0           0  0  0
   -2.5458   -0.3792    0.0000 N   0  0  0  0  0  0           0  0  0
   -2.5000    0.5875    0.0000 N   0  0  0  0  0  0           0  0  0
   -2.8750    0.1208    0.0000 C   0  0  0  0  0  0           0  0  0
   -1.9708   -0.2167    0.0000 C   0  0  0  0  0  0           0  0  0
    1.4792    0.4833    0.0000 O   0  0  0  0  0  0           0  0  0
    0.7917    0.4833    0.0000 O   0  0  0  0  0  0           0  0  0
    0.6250   -0.5250    0.0000 N   0  0  0  0  0  0           0  0  0
    1.6792   -0.5000    0.0000 C   0  0  0  0  0  0           0  0  0
   -1.9375    0.3750    0.0000 C   0  0  0  0  0  0           0  0  0
    1.7042   -1.0792    0.0000 C   0  0  0  0  0  0           0  0  0
   -1.4500   -0.5250    0.0000 C   0  0  0  0  0  0           0  0  0
    0.1042   -0.2167    0.0000 C   0  0  0  0  0  0           0  0  0
    1.2125   -1.3917    0.0000 C   0  0  0  0  0  0           0  0  0
    2.2167   -1.3417    0.0000 C   0  0  0  0  0  0           0  0  0
   -0.9333   -0.2167    0.0000 C   0  0  0  0  0  0           0  0  0
   -0.4125   -0.5250    0.0000 C   0  0  0  0  0  0           0  0  0
    2.2417   -1.9250    0.0000 C   0  0  0  0  0  0           0  0  0
    1.2375   -1.9667    0.0000 C   0  0  0  0  0  0           0  0  0
    1.7542   -2.2417    0.0000 C   0  0  0  0  0  0           0  0  0
  2  5  1  0     0  0
  3 10  1  0     0  0
  4  2  2  0     0  0
  5 12  1  0     0  0
  6  1  2  0     0  0
  7  1  2  0     0  0
  8  1  1  0     0  0
  9  1  1  0     0  0
 10  5  2  0     0  0
 11  9  1  0     0  0
 12 16  1  0     0  0
 13  8  1  0     0  0
 14 11  2  0     0  0
 15 11  1  0     0  0
 16 17  1  0     0  0
 17 13  1  0     0  0
 18 15  2  0     0  0
 19 14  1  0     0  0
 20 18  1  0     0  0
 19 20  2  0     0  0
  3  4  1  0     0  0
M  END