
  SciTegic01161211252D

 29 33  0  0  0  0            999 V2000
   -4.9883   -6.2791    0.0000 C   0  0
   -4.9895   -7.1068    0.0000 C   0  0
   -4.2766   -7.5196    0.0000 C   0  0
   -4.2786   -5.8663    0.0000 C   0  0
   -5.7030   -5.8672    0.0000 F   0  0
   -4.2824   -5.0413    0.0000 C   0  0
   -3.5604   -6.2752    0.0000 C   0  0
   -3.5598   -7.1068    0.0000 C   0  0
   -2.7687   -7.3632    0.0000 N   0  0
   -2.2803   -6.6901    0.0000 C   0  0
   -2.7696   -6.0176    0.0000 N   0  0
   -1.4553   -6.6895    0.0000 C   0  0
   -1.0470   -7.4051    0.0000 C   0  0
   -0.2227   -7.4049    0.0000 C   0  0
    0.1901   -6.6896    0.0000 C   0  0
   -0.2274   -5.9730    0.0000 C   0  0
   -1.0503   -5.9767    0.0000 C   0  0
   -1.4667   -5.2647    0.0000 C   0  0
    1.0151   -6.6879    0.0000 O   0  0
    1.4290   -7.4016    0.0000 C   0  0
    2.2540   -7.3999    0.0000 C   0  0
    2.6679   -8.1135    0.0000 C   0  0
    3.4929   -8.1118    0.0000 N   0  0
    3.9821   -8.7756    0.0000 C   0  0
    3.9794   -7.4408    0.0000 C   0  0
    4.7665   -7.6909    0.0000 C   0  0
    4.7621   -8.5159    0.0000 C   0  0
    5.4789   -8.1072    0.0000 N   0  0
    6.3039   -8.1116    0.0000 C   0  0
 13 14  1  0
  7  8  1  0
 14 15  2  0
  3  8  2  0
 15 16  1  0
  1  2  2  0
 16 17  2  0
 17 12  1  0
  7  4  2  0
 17 18  1  0
  4  1  1  0
 15 19  1  0
 19 20  1  0
  8  9  1  0
 20 21  1  0
  9 10  1  0
 21 22  1  0
 10 11  2  0
 22 23  1  0
 23 24  1  0
 11  7  1  0
  1  5  1  0
 27 24  1  0
 26 25  1  0
 25 23  1  0
 27 26  1  0
 28 27  1  0
 26 28  1  0
 10 12  1  0
  2  3  1  0
 12 13  2  0
  4  6  1  0
 28 29  1  0
M  END