
  SciTegic07291412072D

 51 53  0  0  0  0            999 V2000
    6.4608   -9.1952    0.0000 P   0  0
    7.1753   -3.0077    0.0000 C   0  0  1  0  0  0
    6.3503   -3.0077    0.0000 C   0  0
    7.8898   -4.2452    0.0000 C   0  0
    7.1753   -3.8327    0.0000 N   0  0
    5.9378   -2.2933    0.0000 N   0  0
    5.1128   -2.2933    0.0000 C   0  0  1  0  0  0
    9.3187   -5.0702    0.0000 C   0  0
    4.7003   -1.5788    0.0000 C   0  0
    7.8898   -5.0702    0.0000 C   0  0  1  0  0  0
    8.6043   -5.4827    0.0000 N   0  0
    4.7003   -3.0077    0.0000 C   0  0
    9.6503   -0.1498    0.0000 C   0  0
    3.8753   -1.5788    0.0000 C   0  0
    7.1753   -8.7827    0.0000 O   0  0
    9.2378   -0.8643    0.0000 C   0  0
    6.0483   -8.4808    0.0000 O   0  0
    8.0003   -3.0077    0.0000 C   0  0
    5.9378   -3.7222    0.0000 O   0  0
    8.6043   -3.8327    0.0000 O   0  0
    7.1753   -5.4827    0.0000 C   0  0
    9.3187   -4.2452    0.0000 O   0  0
    5.1128   -3.7222    0.0000 O   0  0
    9.2378    0.5646    0.0000 O   0  0
   10.0332   -5.4827    0.0000 O   0  0
    3.4628   -2.2933    0.0000 O   0  0
    5.7464   -9.6077    0.0000 O   0  0
    6.8733   -9.9097    0.0000 O   0  0
    8.4128   -0.8643    0.0000 C   0  0
    9.6503   -1.5788    0.0000 C   0  0
    3.8753   -3.0077    0.0000 N   0  0
    3.4628   -0.8643    0.0000 N   0  0
    8.4128   -2.2933    0.0000 C   0  0
    7.1753   -7.9577    0.0000 C   0  0
    7.1753   -6.3077    0.0000 C   0  0
   10.4753   -0.1498    0.0000 O   0  0
   11.4621   -6.3077    0.0000 C   0  0
   12.1766   -6.7202    0.0000 C   0  0
   10.7477   -5.0702    0.0000 C   0  0
   12.1766   -7.5452    0.0000 N   0  0
   11.4621   -5.4827    0.0000 C   0  0
    8.0003   -1.5788    0.0000 C   0  0
    9.2378   -2.2933    0.0000 C   0  0
    7.8898   -6.7202    0.0000 C   0  0
    6.4608   -6.7202    0.0000 C   0  0
    6.4608   -7.5452    0.0000 C   0  0
    7.8898   -7.5452    0.0000 C   0  0
    7.1753   -2.1827    0.0000 C   0  0
   12.8911   -5.4827    0.0000 C   0  0
   12.8911   -6.3077    0.0000 C   0  0
   12.1766   -5.0702    0.0000 C   0  0
  2  5  1  0
  3  2  1  0
  4 10  1  0
  5  4  1  0
  6  3  1  0
  7  6  1  0
  8 11  1  0
  7  9  1  6
 10 21  1  1
 11 10  1  0
 12  7  1  0
 13 16  1  0
 14  9  1  0
 15  1  1  0
 16 30  2  0
 17  1  2  0
  2 18  1  6
 19  3  2  0
 20  4  2  0
 21 35  1  0
 22  8  2  0
 23 12  2  0
 24 13  2  0
 25  8  1  0
 26 14  2  0
 27  1  1  0
 28  1  1  0
 29 42  2  0
 30 43  1  0
 31 12  1  0
 32 14  1  0
 33 18  1  0
 34 15  1  0
 35 44  1  0
 36 13  1  0
 37 41  2  0
 38 37  1  0
 39 25  1  0
 40 38  1  0
 41 39  1  0
 42 33  1  0
 43 33  2  0
 44 47  2  0
 45 46  1  0
 46 34  2  0
 47 34  1  0
 48  2  1  0
 49 51  2  0
 50 49  1  0
 51 41  1  0
 45 35  2  0
 29 16  1  0
 38 50  2  0
M  END