
          11280715232D 1   1.00000     0.00000     0

 55 58  0     1  0            999 V2000
    5.5750   -5.8125    0.0000 N   0  0  0  0  0  0           0  0  0
    7.2875   -4.1417    0.0000 N   0  0  0  0  0  0           0  0  0
    3.2375   -5.2875    0.0000 N   0  0  0  0  0  0           0  0  0
    6.9125   -4.8792    0.0000 C   0  0  0  0  0  0           0  0  0
    7.6167   -6.0667    0.0000 C   0  0  0  0  0  0           0  0  0
    4.7542   -5.9000    0.0000 C   0  0  0  0  0  0           0  0  0
    2.7167   -4.6500    0.0000 C   0  0  0  0  0  0           0  0  0
    6.3167   -5.4542    0.0000 C   0  0  2  0  0  0           0  0  0
    7.4000   -3.3250    0.0000 C   0  0  1  0  0  0           0  0  0
    8.9167   -6.3750    0.0000 N   0  0  0  0  0  0           0  0  0
    7.2417   -2.5125    0.0000 C   0  0  0  0  0  0           0  0  0
    8.1542   -6.6917    0.0000 C   0  0  0  0  0  0           0  0  0
    3.9417   -5.7167    0.0000 C   0  0  1  0  0  0           0  0  0
    3.8167   -1.1167    0.0000 N   0  0  0  0  0  0           0  0  0
    2.4000   -3.0500    0.0000 N   0  0  0  0  0  0           0  0  0
    4.6125   -0.8917    0.0000 C   0  0  0  0  0  0           0  0  0
    6.7917   -6.1375    0.0000 C   0  0  0  0  0  0           0  0  0
    8.0417   -5.3625    0.0000 C   0  0  0  0  0  0           0  0  0
    6.8292   -1.7917    0.0000 N   0  0  0  0  0  0           0  0  0
    8.8500   -5.5500    0.0000 C   0  0  0  0  0  0           0  0  0
    2.4250   -3.8750    0.0000 C   0  0  1  0  0  0           0  0  0
    3.8292   -7.9042    0.0000 C   0  0  0  0  0  0           0  0  0
    7.5792   -5.3667    0.0000 O   0  0  0  0  0  0           0  0  0
    4.7042   -6.7250    0.0000 O   0  0  0  0  0  0           0  0  0
    2.0000   -5.0625    0.0000 O   0  0  0  0  0  0           0  0  0
    8.2292   -3.3000    0.0000 C   0  0  0  0  0  0           0  0  0
    5.4375   -0.9417    0.0000 C   0  0  0  0  0  0           0  0  0
    3.1417   -1.5917    0.0000 C   0  0  1  0  0  0           0  0  0
    7.8375   -2.2792    0.0000 O   0  0  0  0  0  0           0  0  0
    4.5167   -0.0667    0.0000 O   0  0  0  0  0  0           0  0  0
    3.0125   -8.0167    0.0000 O   0  0  0  0  0  0           0  0  0
    3.6292   -6.4875    0.0000 C   0  0  0  0  0  0           0  0  0
    2.6500   -2.2542    0.0000 C   0  0  0  0  0  0           0  0  0
    6.2042   -1.2542    0.0000 C   0  0  0  0  0  0           0  0  0
    4.1417   -7.1417    0.0000 C   0  0  0  0  0  0           0  0  0
    4.3375   -8.5542    0.0000 N   0  0  0  0  0  0           0  0  0
    2.5625   -1.0000    0.0000 C   0  0  0  0  0  0           0  0  0
    8.6250   -2.5750    0.0000 C   0  0  0  0  0  0           0  0  0
   -1.1583   -4.7542    0.0000 N   0  0  0  0  0  0           0  0  0
    7.8042   -4.5667    0.0000 C   0  0  0  0  0  0           0  0  0
    9.4167   -4.9500    0.0000 C   0  0  0  0  0  0           0  0  0
    1.6125   -4.0292    0.0000 C   0  0  0  0  0  0           0  0  0
    1.7625   -1.2042    0.0000 C   0  0  3  0  0  0           0  0  0
   -0.3583   -4.9750    0.0000 C   0  0  0  0  0  0           0  0  0
    8.1875   -1.8667    0.0000 C   0  0  0  0  0  0           0  0  0
    9.4500   -2.5500    0.0000 C   0  0  0  0  0  0           0  0  0
    1.0250   -4.6167    0.0000 C   0  0  0  0  0  0           0  0  0
    0.2292   -4.3917    0.0000 C   0  0  0  0  0  0           0  0  0
    1.5375   -1.9917    0.0000 C   0  0  0  0  0  0           0  0  0
    1.1792   -0.6042    0.0000 C   0  0  0  0  0  0           0  0  0
    8.3750   -3.9667    0.0000 C   0  0  0  0  0  0           0  0  0
    9.1792   -4.1542    0.0000 C   0  0  0  0  0  0           0  0  0
    8.5792   -1.1375    0.0000 C   0  0  0  0  0  0           0  0  0
    9.8417   -1.8167    0.0000 C   0  0  0  0  0  0           0  0  0
    9.4042   -1.1167    0.0000 C   0  0  0  0  0  0           0  0  0
  2  4  1  0     0  0
  3 13  1  0     0  0
  4  8  1  0     0  0
  5 17  1  0     0  0
  6  1  1  0     0  0
  7  3  1  0     0  0
  8  1  1  0     0  0
  9  2  1  0     0  0
 10 12  1  0     0  0
 11  9  1  0     0  0
 12  5  2  0     0  0
 13  6  1  0     0  0
 14 28  1  0     0  0
 15 21  1  0     0  0
 16 27  1  0     0  0
  8 17  1  6     0  0
 18  5  1  0     0  0
 19 11  1  0     0  0
 20 18  2  0     0  0
 21  7  1  0     0  0
 22 35  1  0     0  0
 23  4  2  0     0  0
 24  6  2  0     0  0
 25  7  2  0     0  0
  9 26  1  1     0  0
 27 34  1  0     0  0
 28 33  1  0     0  0
 29 11  2  0     0  0
 30 16  2  0     0  0
 31 22  2  0     0  0
 13 32  1  1     0  0
 33 15  1  0     0  0
 34 19  1  0     0  0
 35 32  1  0     0  0
 36 22  1  0     0  0
 28 37  1  1     0  0
 38 26  1  0     0  0
 39 44  1  0     0  0
 40 18  1  0     0  0
 41 20  1  0     0  0
 21 42  1  6     0  0
 43 37  1  0     0  0
 44 48  1  0     0  0
 45 38  2  0     0  0
 46 38  1  0     0  0
 47 42  1  0     0  0
 48 47  1  0     0  0
 49 43  1  0     0  0
 50 43  1  0     0  0
 51 40  2  0     0  0
 52 51  1  0     0  0
 53 45  1  0     0  0
 54 46  2  0     0  0
 55 54  1  0     0  0
 10 20  1  0     0  0
 52 41  2  0     0  0
 55 53  2  0     0  0
 16 14  1  0     0  0
M  END