
  SciTegic05071317012D

 27 29  0  0  0  0            999 V2000
    0.6236  -11.9080    0.0000 C   0  0
    0.6224  -12.7353    0.0000 C   0  0
    1.3372  -13.1482    0.0000 C   0  0
    2.0536  -12.7348    0.0000 C   0  0
    2.0508  -11.9044    0.0000 C   0  0
    1.3354  -11.4952    0.0000 C   0  0
    2.7687  -13.1462    0.0000 C   0  0
    2.7700  -13.9712    0.0000 O   0  0
    3.4821  -12.7330    0.0000 N   0  0
    4.1464  -13.2221    0.0000 C   0  0  1  0  0  0
    4.1442  -14.0449    0.0000 C   0  0  2  0  0  0
    4.9273  -14.3042    0.0000 N   0  0
    5.4163  -13.6404    0.0000 C   0  0
    4.9355  -12.9700    0.0000 C   0  0
    3.4746  -14.5268    0.0000 C   0  0
    5.3582  -15.0077    0.0000 C   0  0
    6.1830  -14.9864    0.0000 C   0  0
    6.6114  -15.6910    0.0000 C   0  0
    7.4354  -15.6700    0.0000 C   0  0
    7.8300  -14.9446    0.0000 C   0  0
    7.3947  -14.2388    0.0000 C   0  0
    6.5721  -14.2633    0.0000 C   0  0
    1.3329  -10.6702    0.0000 Cl  0  0
    1.3370  -13.9732    0.0000 O   0  0
    0.6225  -14.3855    0.0000 C   0  0
   -0.0924  -11.4957    0.0000 N   0  0
   -0.0922  -10.6707    0.0000 C   0  0
  1  2  2  0
  2  3  1  0
  3  4  2  0
  4  5  1  0
  5  6  2  0
  6  1  1  0
  4  7  1  0
  7  8  2  0
  7  9  1  0
 10  9  1  6
 10 11  1  0
 11 12  1  0
 12 13  1  0
 13 14  1  0
 14 10  1  0
 11 15  1  6
 12 16  1  0
 16 17  1  0
 17 18  2  0
 18 19  1  0
 19 20  2  0
 20 21  1  0
 21 22  2  0
 22 17  1  0
  6 23  1  0
  3 24  1  0
 24 25  1  0
  1 26  1  0
 26 27  1  0
M  END