
  SciTegic02011310462D

 14 16  0  0  0  0            999 V2000
    1.9801   -0.9188    0.0000 N   0  0
    2.7274   -1.2532    0.0000 C   0  0
    2.6392   -2.0636    0.0000 C   0  0  1  0  0  0
    1.8408   -2.2344    0.0000 C   0  0
    1.4322   -2.9435    0.0000 C   0  0
    0.6151   -2.9435    0.0000 C   0  0
    0.2065   -2.2344    0.0000 C   0  0
    0.6151   -1.5253    0.0000 C   0  0
    1.4322   -1.5253    0.0000 C   0  0
    3.8462   -2.6019    0.0000 N   0  0
    3.4376   -1.8929    0.0000 C   0  0
    2.5552   -2.8781    0.0000 C   0  0
    3.2984   -3.2084    0.0000 C   0  0
    3.4323   -0.8446    0.0000 O   0  0
  1  2  1  0
  2  3  1  0
  3  4  1  0
  4  5  1  0
  5  6  2  0
  6  7  1  0
  7  8  2  0
  8  9  1  0
  1  9  1  0
  4  9  2  0
 10 11  1  0
 12 13  1  0
 10 13  1  0
  3 11  1  6
  3 12  1  0
  2 14  2  0
M  END