
  SciTegic09171211542D

 46 51  0  0  0  0            999 V2000
   -4.5082    1.6684    0.0000 C   0  0
   -4.5094    0.8410    0.0000 C   0  0
   -3.7946    0.4282    0.0000 C   0  0
   -3.0781    0.8415    0.0000 C   0  0
   -3.0810    1.6720    0.0000 C   0  0
   -3.7964    2.0812    0.0000 C   0  0
   -0.9382    2.0879    0.0000 N   0  0
   -0.2231    1.6765    0.0000 C   0  0
    0.4907    2.0901    0.0000 C   0  0
   -0.2218    0.8515    0.0000 O   0  0
    1.2045    1.6774    0.0000 C   0  0
    1.1969    3.3274    0.0000 C   0  0
    0.4865    2.9121    0.0000 C   0  0
    1.1927    4.1559    0.0000 C   0  0
    1.9170    2.9162    0.0000 C   0  0
    1.9193    2.0917    0.0000 C   0  0
    2.7034    1.8391    0.0000 N   0  0
    3.1870    2.5075    0.0000 C   0  0
    2.7005    3.1731    0.0000 N   0  0
    4.0120    2.5098    0.0000 C   0  0
    4.4225    3.2254    0.0000 C   0  0
    5.2475    3.2277    0.0000 C   0  0
    2.7053    1.0141    0.0000 C   0  0
    3.4207    0.6033    0.0000 C   0  0
    3.4178   -0.2211    0.0000 C   0  0
    4.1323   -0.6318    0.0000 C   0  0
    4.8468   -0.2177    0.0000 C   0  0
    4.8423    0.6116    0.0000 C   0  0
    4.1271    1.0187    0.0000 C   0  0
    5.5611   -0.6250    0.0000 C   0  0
    5.5627   -1.4511    0.0000 C   0  0
    6.2778   -1.8609    0.0000 C   0  0
    6.9918   -1.4458    0.0000 C   0  0
    6.9861   -0.6165    0.0000 C   0  0
    6.2704   -0.2104    0.0000 C   0  0
    6.2652    0.6146    0.0000 C   0  0
    6.9257    1.1038    0.0000 N   0  0
    6.6658    1.8868    0.0000 N   0  0
    5.8408    1.8815    0.0000 N   0  0
    5.5910    1.0953    0.0000 N   0  0
   -1.6520    1.6743    0.0000 C   0  0
   -2.3672    2.0856    0.0000 C   0  0
   -5.2228    2.0807    0.0000 O   0  0
   -5.2230    2.9057    0.0000 C   0  0
   -5.2242    0.4291    0.0000 O   0  0
   -5.9367    0.8422    0.0000 C   0  0
 11 16  1  0
 17 23  1  0
  5  6  2  0
 23 24  1  0
 15 12  1  0
 24 25  2  0
  6  1  1  0
 25 26  1  0
 12 13  2  0
 26 27  2  0
 13  9  1  0
 27 28  1  0
  1  2  2  0
 28 29  2  0
 29 24  1  0
 12 14  1  0
 15 16  2  0
 30 31  2  0
  3  4  2  0
 31 32  1  0
  7  8  1  0
 32 33  2  0
 33 34  1  0
  8  9  1  0
 34 35  2  0
 35 30  1  0
 27 30  1  0
  4  5  1  0
 35 36  1  0
 36 37  1  0
 16 17  1  0
 17 18  1  0
 18 19  2  0
 19 15  1  0
 37 38  1  0
 38 39  2  0
 39 40  1  0
 40 36  2  0
  8 10  2  0
  7 41  1  0
 18 20  1  0
 41 42  1  0
 42  5  1  0
  2  3  1  0
  1 43  1  0
 20 21  1  0
 43 44  1  0
  9 11  2  0
  2 45  1  0
 21 22  1  0
 45 46  1  0
M  END