
  Mrv0541 04051115152D          

 11 11  0  0  0  0            999 V2000
    0.0190   -0.0719    0.0000 C   0  0  0  0  0  0  0  0  0  0  0  0
    0.0190   -0.8969    0.0000 C   0  0  0  0  0  0  0  0  0  0  0  0
   -0.6955   -1.3094    0.0000 C   0  0  0  0  0  0  0  0  0  0  0  0
   -1.4099   -0.8969    0.0000 C   0  0  0  0  0  0  0  0  0  0  0  0
   -1.4099   -0.0719    0.0000 C   0  0  0  0  0  0  0  0  0  0  0  0
   -0.6955    0.3406    0.0000 C   0  0  0  0  0  0  0  0  0  0  0  0
   -0.6955    1.1656    0.0000 O   0  0  0  0  0  0  0  0  0  0  0  0
    0.7335    0.3406    0.0000 C   0  0  0  0  0  0  0  0  0  0  0  0
    0.7335    1.1656    0.0000 O   0  0  0  0  0  0  0  0  0  0  0  0
    1.4479   -0.0719    0.0000 N   0  0  0  0  0  0  0  0  0  0  0  0
    2.1624    0.3406    0.0000 O   0  0  0  0  0  0  0  0  0  0  0  0
  1  2  2  0  0  0  0
  1  6  1  0  0  0  0
  1  8  1  0  0  0  0
  2  3  1  0  0  0  0
  3  4  2  0  0  0  0
  4  5  1  0  0  0  0
  5  6  2  0  0  0  0
  6  7  1  0  0  0  0
  8  9  2  0  0  0  0
  8 10  1  0  0  0  0
 10 11  1  0  0  0  0
M  END