
  CDK    9/16/09,9:58

  9 10  0  0  0  0  0  0  0  0999 V2000
    4.0733  -18.1468    0.0000 S   0  0  0  0  0  0  0  0  0  0  0  0
    4.5606  -18.8146    0.0000 C   0  0  0  0  0  0  0  0  0  0  0  0
    4.0733  -19.4824    0.0000 C   0  0  0  0  0  0  0  0  0  0  0  0
    3.2880  -19.2271    0.0000 C   0  0  0  0  0  0  0  0  0  0  0  0
    2.5739  -19.6396    0.0000 C   0  0  0  0  0  0  0  0  0  0  0  0
    1.8598  -19.2271    0.0000 C   0  0  0  0  0  0  0  0  0  0  0  0
    1.8598  -18.4021    0.0000 C   0  0  0  0  0  0  0  0  0  0  0  0
    2.5739  -17.9896    0.0000 C   0  0  0  0  0  0  0  0  0  0  0  0
    3.2880  -18.4021    0.0000 C   0  0  0  0  0  0  0  0  0  0  0  0
  1  2  1  0  0  0  0 
  2  3  2  0  0  0  0 
  3  4  1  0  0  0  0 
  4  5  1  0  0  0  0 
  5  6  2  0  0  0  0 
  6  7  1  0  0  0  0 
  7  8  2  0  0  0  0 
  8  9  1  0  0  0  0 
  1  9  1  0  0  0  0 
  4  9  2  0  0  0  0 
M  END