
  SciTegic12201609472D

 34 37  0  0  0  0            999 V2000
    2.6024   -2.6977    0.0000 O   0  0
    2.6003   -1.4977    0.0000 C   0  0
    1.2990   -0.7500    0.0000 C   0  0
    1.2990    0.7500    0.0000 C   0  0
    0.0000    1.5000    0.0000 N   0  0
   -1.2990    0.7500    0.0000 C   0  0
   -1.2990   -0.7500    0.0000 C   0  0
    0.0000   -1.5000    0.0000 C   0  0
   -2.3383    1.3500    0.0000 O   0  0
    3.8990   -0.7455    0.0000 N   0  0
    5.2003   -1.4932    0.0000 C   0  0
    6.4994   -0.7432    0.0000 C   0  0
    6.4994    0.7575    0.0000 N   0  0
    5.2016    1.5097    0.0000 C   0  0
    5.2039    3.0097    0.0000 C   0  0
    6.5041    3.7576    0.0000 N   0  0
    6.5060    4.9576    0.0000 C   0  0
    7.8020    3.0056    0.0000 C   0  0
    7.7996    1.5056    0.0000 C   0  0
    7.7985   -1.4932    0.0000 C   0  0
    7.7985   -2.9932    0.0000 C   0  0
    6.4995   -3.7432    0.0000 C   0  0
    6.4995   -5.2440    0.0000 C   0  0
    7.7974   -5.9961    0.0000 C   0  0
    7.7951   -7.4961    0.0000 C   0  0
    6.4948   -8.2441    0.0000 C   0  0
    6.4930   -9.4441    0.0000 N   0  0
    5.1970   -7.4921    0.0000 C   0  0
    5.1993   -5.9921    0.0000 C   0  0
    5.2004   -2.9933    0.0000 C   0  0
    0.0000   -3.0008    0.0000 C   0  0
   -1.0388   -3.6015    0.0000 F   0  0
    1.0394   -3.6005    0.0000 F   0  0
    0.0006   -4.2008    0.0000 F   0  0
  1  2  2  0
  2  3  1  0
  3  4  2  0
  4  5  1  0
  5  6  1  0
  6  7  1  0
  7  8  2  0
  3  8  1  0
  6  9  2  0
  2 10  1  0
 10 11  1  0
 11 12  2  0
 12 13  1  0
 13 14  1  0
 14 15  1  0
 15 16  1  0
 16 17  1  0
 16 18  1  0
 18 19  1  0
 13 19  1  0
 12 20  1  0
 20 21  2  0
 21 22  1  0
 22 23  1  0
 23 24  2  0
 24 25  1  0
 25 26  2  0
 26 27  1  0
 26 28  1  0
 28 29  2  0
 23 29  1  0
 22 30  2  0
 11 30  1  0
 31 32  1  0
 31 33  1  0
 31 34  1  0
  8 31  1  0
M  END