
  SciTegic10301317112D

 40 42  0  0  0  0            999 V2000
   -2.4884   -0.1754    0.0000 S   0  0
    0.8142   -0.1545    0.0000 C   0  0
    7.6826   -4.1753    0.0000 C   0  0  1  0  0  0
    8.4968   -4.0501    0.0000 C   0  0
    7.1690   -3.5240    0.0000 N   0  0
   -1.6617   -0.1670    0.0000 C   0  0
    6.3423   -3.5323    0.0000 C   0  0
    1.2317   -0.8685    0.0000 N   0  0
   -2.4884   -0.9938    0.0000 O   0  0
   -2.4884    0.6513    0.0000 O   0  0
    2.4718   -1.5783    0.0000 C   0  0
    4.6137   -2.1545    0.0000 C   0  0
   -0.0125   -0.1545    0.0000 C   0  0
   -3.3152   -0.1670    0.0000 N   0  0
    7.3778   -4.9394    0.0000 C   0  0
    5.0980   -2.8225    0.0000 N   0  0
    3.2985   -1.5699    0.0000 N   0  0
    8.0834   -7.0020    0.0000 C   0  0
    7.8830   -5.5908    0.0000 C   0  0
    7.5782   -6.3506    0.0000 C   0  0
    1.2192    0.5595    0.0000 O   0  0
    8.8057   -3.2860    0.0000 O   0  0
    5.9373   -4.2505    0.0000 O   0  0
    2.0668   -2.2964    0.0000 O   0  0
    4.9477   -1.3946    0.0000 O   0  0
   -1.2609    0.5469    0.0000 C   0  0
   -1.2484   -0.8810    0.0000 C   0  0
   -0.4217   -0.8810    0.0000 C   0  0
   -0.4342    0.5511    0.0000 C   0  0
    8.9059   -6.8809    0.0000 C   0  0
    2.0585   -0.8643    0.0000 C   0  0
    9.2108   -6.1169    0.0000 C   0  0
    5.9248   -2.8183    0.0000 C   0  0
    3.7870   -2.2421    0.0000 C   0  0
    9.0103   -4.7014    0.0000 O   0  0
    8.7055   -5.4655    0.0000 C   0  0
    7.7786   -7.7661    0.0000 C   0  0
    9.4112   -7.5323    0.0000 C   0  0
    8.2838   -8.4174    0.0000 C   0  0
    9.1063   -8.3047    0.0000 C   0  0
  2 13  1  0
  3  5  1  0
  4  3  1  0
  5  7  1  0
  6  1  1  0
  7 33  1  0
  8  2  1  0
  9  1  2  0
 10  1  2  0
 11 31  1  0
 12 34  1  0
 13 28  2  0
 14  1  1  0
  3 15  1  6
 16 12  1  0
 17 11  1  0
 18 20  2  0
 19 15  1  0
 20 19  1  0
 21  2  2  0
 22  4  2  0
 23  7  2  0
 24 11  2  0
 25 12  2  0
 26  6  1  0
 27  6  2  0
 28 27  1  0
 29 26  2  0
 30 32  2  0
 31  8  1  0
 32 36  1  0
 33 16  1  0
 34 17  1  0
 35  4  1  0
 36 19  2  0
 37 18  1  0
 38 30  1  0
 39 37  2  0
 40 38  2  0
 29 13  1  0
 30 18  1  0
 40 39  1  0
M  END