
          11280714552D 1   1.00000     0.00000     0

 16 18  0     1  0            999 V2000
    2.6125   -2.3167    0.0000 C   0  0  2  0  0  0           0  0  0
    2.1167   -2.9917    0.0000 N   0  0  3  0  0  0           0  0  0
    3.4375   -2.3167    0.0000 C   0  0  0  0  0  0           0  0  0
    1.3250   -2.7292    0.0000 C   0  0  0  0  0  0           0  0  0
    2.1250   -1.6417    0.0000 C   0  0  0  0  0  0           0  0  0
    1.3292   -1.8917    0.0000 C   0  0  0  0  0  0           0  0  0
    3.8542   -1.6042    0.0000 N   0  0  0  0  0  0           0  0  0
    3.9792   -2.9375    0.0000 N   0  0  0  0  0  0           0  0  0
    2.1125   -3.8167    0.0000 C   0  0  0  0  0  0           0  0  0
    2.6042   -3.1417    0.0000 C   0  0  0  0  0  0           0  0  0
    4.6625   -1.7917    0.0000 C   0  0  0  0  0  0           0  0  0
    0.6042   -3.1417    0.0000 C   0  0  0  0  0  0           0  0  0
    0.6042   -1.4917    0.0000 C   0  0  0  0  0  0           0  0  0
    4.7375   -2.6125    0.0000 C   0  0  0  0  0  0           0  0  0
   -0.1083   -2.7292    0.0000 C   0  0  0  0  0  0           0  0  0
   -0.1083   -1.9042    0.0000 C   0  0  0  0  0  0           0  0  0
  2  1  1  0     0  0
  1  3  1  1     0  0
  4  2  1  0     0  0
  5  1  1  0     0  0
  6  5  1  0     0  0
  7  3  2  0     0  0
  8  3  1  0     0  0
  9  2  1  0     0  0
  1 10  1  6     0  0
 11  7  1  0     0  0
 12  4  2  0     0  0
 13  6  2  0     0  0
 14  8  1  0     0  0
 15 12  1  0     0  0
 16 13  1  0     0  0
  6  4  1  0     0  0
 14 11  1  0     0  0
 16 15  2  0     0  0
M  END