
          11280715002D 1   1.00000     0.00000     0

 22 25  0     0  0            999 V2000
    0.4625   -7.1667    0.0000 C   0  0  0  0  0  0           0  0  0
    0.4667   -6.3500    0.0000 C   0  0  0  0  0  0           0  0  0
    1.8917   -7.1667    0.0000 C   0  0  0  0  0  0           0  0  0
    1.1750   -5.9292    0.0000 C   0  0  0  0  0  0           0  0  0
    3.5042   -8.5667    0.0000 N   0  0  0  0  0  0           0  0  0
    3.9167   -7.8542    0.0000 C   0  0  0  0  0  0           0  0  0
    1.1792   -7.5792    0.0000 C   0  0  0  0  0  0           0  0  0
    1.8917   -6.3417    0.0000 C   0  0  0  0  0  0           0  0  0
    2.6125   -7.5792    0.0000 C   0  0  3  0  0  0           0  0  0
   -0.3208   -7.4167    0.0000 O   0  0  0  0  0  0           0  0  0
    3.3667   -7.2417    0.0000 C   0  0  0  0  0  0           0  0  0
   -0.2458   -5.9542    0.0000 O   0  0  0  0  0  0           0  0  0
    2.7000   -8.4000    0.0000 C   0  0  0  0  0  0           0  0  0
    4.7417   -7.7667    0.0000 O   0  0  0  0  0  0           0  0  0
   -0.5000   -8.2250    0.0000 C   0  0  3  0  0  0           0  0  0
    1.1625   -5.1125    0.0000 C   0  0  0  0  0  0           0  0  0
   -0.2583   -5.1292    0.0000 C   0  0  0  0  0  0           0  0  0
    0.0417   -8.8500    0.0000 C   0  0  0  0  0  0           0  0  0
   -1.2583   -8.5625    0.0000 C   0  0  0  0  0  0           0  0  0
    0.4417   -4.7125    0.0000 C   0  0  0  0  0  0           0  0  0
   -0.3750   -9.5625    0.0000 C   0  0  0  0  0  0           0  0  0
   -1.1833   -9.3792    0.0000 C   0  0  0  0  0  0           0  0  0
  2  1  2  0     0  0
  3  7  2  0     0  0
  4  2  1  0     0  0
  5 13  1  0     0  0
  6 11  1  0     0  0
  7  1  1  0     0  0
  8  3  1  0     0  0
  9  3  1  0     0  0
 10  1  1  0     0  0
 11  9  1  0     0  0
 12  2  1  0     0  0
 13  9  1  0     0  0
 14  6  2  0     0  0
 15 10  1  0     0  0
 16  4  1  0     0  0
 17 12  1  0     0  0
 18 15  1  0     0  0
 19 15  1  0     0  0
 20 17  1  0     0  0
 21 18  1  0     0  0
 22 19  1  0     0  0
  4  8  2  0     0  0
 21 22  1  0     0  0
 20 16  1  0     0  0
  6  5  1  0     0  0
M  END