
  SciTegic12131613582D

 28 31  0  0  0  0            999 V2000
   -2.7553    1.7534    0.0000 C   0  0
   -2.0038    0.8092    0.0000 C   0  0
    0.0578    1.2717    0.0000 C   0  0
   -1.7148    1.9846    0.0000 C   0  0
    0.8285    0.3661    0.0000 C   0  0
    0.0000    0.1734    0.0000 C   0  0
    0.6358   -0.7900    0.0000 C   0  0  1  0  0  0
    2.1965   -1.7534    0.0000 C   0  0  2  0  0  0
    3.5645   -0.7514    0.0000 C   0  0  1  0  0  0
    2.7360   -0.4624    0.0000 C   0  0
    1.2717    0.5973    0.0000 C   0  0
    3.8343    1.0790    0.0000 N   0  0
    2.6975    1.7534    0.0000 C   0  0
    5.1324    1.8264    0.0000 C   0  0
    6.4303    1.0726    0.0000 C   0  0
    7.7324    1.8189    0.0000 C   0  0
    9.0302    1.0652    0.0000 N   0  0
    7.7359    3.0189    0.0000 O   0  0
   10.3324    1.8114    0.0000 C   0  0
   11.6306    1.0600    0.0000 C   0  0
   12.9305    1.8085    0.0000 C   0  0
   12.9323    3.3085    0.0000 C   0  0
   11.6341    4.0600    0.0000 C   0  0
   10.3342    3.3115    0.0000 C   0  0
   -0.1893   -1.3550    0.0000 C   0  0
    2.2440   -2.9524    0.0000 C   0  0
    3.0466    0.1040    0.0000 H   0  0
   -3.8866    2.1535    0.0000 O   0  0
  1  2  2  0
  2  6  1  0
  5  3  1  0
  3  4  2  0
  4  1  1  0
  5  6  2  0
  5 10  1  0
  6  7  1  0
  7  8  1  0
  8  9  1  0
  9 10  1  0
  7 11  1  0
  9 12  1  0
 11 13  1  0
 12 13  1  0
 12 14  1  0
 14 15  1  0
 15 16  1  0
 16 17  1  0
 16 18  2  0
 17 19  1  0
 19 20  2  0
 20 21  1  0
 21 22  2  0
 22 23  1  0
 23 24  2  0
 24 19  1  0
  7 25  1  1
  8 26  1  6
  9 27  1  6
  1 28  1  0
M  END