
  Mrv0541 04051115152D          

 16 17  0  0  0  0            999 V2000
   -1.0415   -1.5161    0.0000 O   0  0  0  0  0  0  0  0  0  0  0  0
   -1.0415   -0.6911    0.0000 C   0  0  0  0  0  0  0  0  0  0  0  0
   -1.7560   -0.2786    0.0000 N   0  0  0  0  0  0  0  0  0  0  0  0
   -1.7560    0.5464    0.0000 C   0  0  0  0  0  0  0  0  0  0  0  0
   -2.4705    0.9589    0.0000 N   0  0  0  0  0  0  0  0  0  0  0  0
   -1.0415    0.9589    0.0000 N   0  0  0  0  0  0  0  0  0  0  0  0
   -0.3270   -0.2786    0.0000 C   0  0  0  0  0  0  0  0  0  0  0  0
   -0.3270    0.5464    0.0000 C   0  0  0  0  0  0  0  0  0  0  0  0
    0.3874    0.9589    0.0000 N   0  0  0  0  0  0  0  0  0  0  0  0
    0.3874    1.7839    0.0000 C   0  0  0  0  0  0  0  0  0  0  0  0
    1.1019    0.5464    0.0000 C   0  0  0  0  0  0  0  0  0  0  0  0
    0.3874   -0.6911    0.0000 N   0  0  0  0  0  0  0  0  0  0  0  0
    1.1019   -0.2786    0.0000 C   0  0  0  0  0  0  0  0  0  0  0  0
    1.8164   -0.6911    0.0000 C   0  0  0  0  0  0  0  0  0  0  0  0
    2.5308   -0.2786    0.0000 O   0  0  0  0  0  0  0  0  0  0  0  0
    1.8164   -1.5161    0.0000 O   0  0  0  0  0  0  0  0  0  0  0  0
  2  1  2  0  0  0  0
  7  2  1  0  0  0  0
  2  3  1  0  0  0  0
  4  3  1  0  0  0  0
  4  6  2  0  0  0  0
  4  5  1  0  0  0  0
  8  6  1  0  0  0  0
  7  8  2  0  0  0  0
  7 12  1  0  0  0  0
  8  9  1  0  0  0  0
 10  9  1  0  0  0  0
 11  9  1  0  0  0  0
 13 12  2  0  0  0  0
 13 11  1  0  0  0  0
 13 14  1  0  0  0  0
 14 16  1  0  0  0  0
 14 15  2  0  0  0  0
M  END