
  SciTegic09141216172D

 34 38  0  0  0  0            999 V2000
    4.9354   -1.7689    0.0000 C   0  0
    5.4203   -2.4364    0.0000 N   0  0
    5.4203   -1.1015    0.0000 N   0  0
    6.2049   -2.1814    0.0000 C   0  0
    6.2049   -1.3564    0.0000 C   0  0
    5.1653   -3.2210    0.0000 C   0  0
    4.6555   -4.7903    0.0000 N   0  0
    4.1104   -1.7689    0.0000 O   0  0
    4.3584   -3.3925    0.0000 C   0  0
    5.7174   -3.8341    0.0000 C   0  0
    5.2497   -7.5857    0.0000 C   0  0
    4.9947   -8.3703    0.0000 C   0  0
    6.0566   -7.4142    0.0000 C   0  0
    4.1034   -4.1772    0.0000 C   0  0
    5.4624   -4.6187    0.0000 C   0  0
    6.6087   -8.0273    0.0000 C   0  0
    4.1877   -8.5418    0.0000 C   0  0
    5.5467   -8.9834    0.0000 C   0  0
    6.3116   -6.6295    0.0000 C   0  0
    7.6706   -7.0711    0.0000 C   0  0
    4.4848   -9.9395    0.0000 C   0  0
    7.1185   -6.4580    0.0000 C   0  0
    5.2918   -9.7680    0.0000 C   0  0
    7.4156   -7.8557    0.0000 C   0  0
    3.9328   -9.3265    0.0000 C   0  0
    4.2299  -10.7242    0.0000 F   0  0
    8.4775   -6.8996    0.0000 F   0  0
    4.4005   -5.5749    0.0000 C   0  0
    6.9194   -2.5939    0.0000 C   0  0
    6.9194   -0.9439    0.0000 C   0  0
    4.9526   -6.1880    0.0000 C   0  0
    4.6976   -6.9726    0.0000 C   0  0
    7.6338   -2.1814    0.0000 C   0  0
    7.6338   -1.3564    0.0000 C   0  0
  2  1  1  0
  3  1  1  0
  4  2  1  0
  5  3  1  0
  6  2  1  0
  7 15  1  0
  8  1  2  0
  9  6  1  0
 10  6  1  0
 11 32  1  0
 12 11  1  0
 13 11  1  0
 14  9  1  0
 15 10  1  0
 16 13  1  0
 17 12  2  0
 18 12  1  0
 19 13  2  0
 20 22  2  0
 21 23  1  0
 22 19  1  0
 23 18  2  0
 24 16  2  0
 25 17  1  0
 26 21  1  0
 27 20  1  0
 28  7  1  0
 29  4  2  0
 30  5  2  0
 31 28  1  0
 32 31  1  0
 33 29  1  0
 34 30  1  0
  4  5  1  0
 33 34  2  0
 14  7  1  0
 24 20  1  0
 25 21  2  0
M  END