
  SciTegic11201309402D

 70 72  0  0  1  0            999 V2000
    2.0667   -2.4167    0.0000 N   0  0
    3.6500   -2.0000    0.0000 C   0  0
    6.0625   -3.9542    0.0000 N   0  0
    6.1500   -4.7750    0.0000 C   0  0  2  0  0  0
    4.4542   -2.1667    0.0000 N   0  0
    0.8667   -4.5042    0.0000 N   0  0
    1.4542   -2.9750    0.0000 C   0  0
    5.7250   -3.2000    0.0000 C   0  0
    0.9542   -5.3250    0.0000 C   0  0
    6.9750   -4.8167    0.0000 C   0  0
    2.8250   -2.0875    0.0000 C   0  0  1  0  0  0
    5.1750   -2.5792    0.0000 C   0  0  2  0  0  0
    1.8417   -6.6917    0.0000 N   0  0
    1.0417   -3.6917    0.0000 C   0  0  2  0  0  0
    1.2917   -6.0792    0.0000 C   0  0  2  0  0  0
    7.3500   -5.5542    0.0000 N   0  0
    5.6917   -1.9417    0.0000 C   0  0
    2.5625   -7.1042    0.0000 C   0  0
    8.7500   -5.1000    0.0000 C   0  0
    8.9042   -2.9167    0.0000 C   0  0
   12.6875   -3.1917    0.0000 C   0  0
    8.5417   -4.3042    0.0000 N   0  0
    6.4875   -1.7250    0.0000 C   0  0
    9.4917   -2.3292    0.0000 N   0  0
    5.5625   -6.3000    0.0000 S   0  0
    8.1667   -5.6875    0.0000 C   0  0
    4.9500   -6.8542    0.0000 S   0  0
    9.1167   -3.7167    0.0000 C   0  0  1  0  0  0
    9.8667   -0.9500    0.0000 C   0  0
   13.2750   -2.6042    0.0000 N   0  0
    3.6917   -1.1667    0.0000 O   0  0
    0.8125   -2.4542    0.0000 O   0  0
    6.4167   -2.7500    0.0000 O   0  0
    0.1542   -5.5375    0.0000 O   0  0
    7.4250   -4.1292    0.0000 O   0  0
    5.9792   -5.5792    0.0000 C   0  0
    0.5917   -6.5292    0.0000 C   0  0
    0.2667   -3.3917    0.0000 C   0  0
    3.3667   -7.2792    0.0000 C   0  0
    8.1042   -2.7042    0.0000 O   0  0
    9.5500   -5.3167    0.0000 O   0  0
    2.2542   -7.8792    0.0000 O   0  0
    7.0750   -2.3000    0.0000 O   0  0
   10.6625   -1.1667    0.0000 O   0  0
   11.8875   -2.9792    0.0000 N   0  0
    9.2792   -1.5375    0.0000 C   0  0
   12.9042   -3.9875    0.0000 N   0  0
    2.6125   -1.2875    0.0000 C   0  0
    6.6917   -0.9250    0.0000 N   0  0
   -0.2333   -6.5292    0.0000 C   0  0
    9.6542   -0.1542    0.0000 N   0  0
   -1.8875   -6.5250    0.0000 C   0  0
   -0.3208   -2.8042    0.0000 C   0  0
    4.1917   -7.1917    0.0000 C   0  0
   -0.6458   -5.8042    0.0000 C   0  0
   -0.6458   -7.2417    0.0000 C   0  0
   -1.4708   -7.2417    0.0000 C   0  0
   -1.4708   -5.8042    0.0000 C   0  0
   -2.7125   -6.5250    0.0000 O   0  0
    6.9750   -6.2917    0.0000 C   0  0
    9.9167   -3.9292    0.0000 C   0  0
   11.3042   -3.5625    0.0000 C   0  0
    1.8125   -1.0667    0.0000 C   0  0
    3.1917   -0.7000    0.0000 C   0  0
   -1.1208   -3.0250    0.0000 C   0  0
   -0.1000   -2.0000    0.0000 C   0  0
   10.5042   -3.3500    0.0000 C   0  0
   -0.6875   -1.4125    0.0000 C   0  0
   -1.7083   -2.4375    0.0000 C   0  0
   -1.4958   -1.6292    0.0000 C   0  0
  2 11  1  0
  3  8  1  0
  4  3  1  0
  5  2  1  0
  6 14  1  0
  7  1  1  0
  8 12  1  0
  9  6  1  0
  4 10  1  6
 11  1  1  0
 12  5  1  0
 13 15  1  0
 14  7  1  0
 15  9  1  0
 16 10  1  0
 12 17  1  1
 18 13  1  0
 19 26  1  0
 20 28  1  0
 21 45  2  0
 22 19  1  0
 23 17  1  0
 24 20  1  0
 25 36  1  0
 26 16  1  0
 27 25  1  0
 28 22  1  6
 29 46  1  0
 30 21  1  0
 31  2  2  0
 32  7  2  0
 33  8  2  0
 34  9  2  0
 35 10  2  0
  4 36  1  0
 15 37  1  6
 14 38  1  1
 39 18  1  0
 40 20  2  0
 41 19  2  0
 42 18  2  0
 43 23  2  0
 44 29  2  0
 45 62  1  0
 46 24  1  0
 47 21  1  0
 11 48  1  6
 49 23  1  0
 50 37  1  0
 51 29  1  0
 52 57  1  0
 53 38  1  0
 39 54  1  0
 55 50  2  0
 56 50  1  0
 57 56  2  0
 58 55  1  0
 59 52  1  0
 60 16  1  0
 28 61  1  0
 62 67  1  0
 63 48  1  0
 64 48  1  0
 65 53  1  0
 66 53  2  0
 67 61  1  0
 68 66  1  0
 69 65  2  0
 70 68  2  0
 69 70  1  0
 58 52  2  0
 54 27  1  0
M  END