
  SciTegic10301317112D

 69 72  0  0  1  0            999 V2000
   14.9517   -7.3098    0.0000 N   0  0
   14.2471   -6.8973    0.0000 C   0  0
    5.6541   -6.9489    0.0000 C   0  0
    7.8082   -7.3441    0.0000 C   0  0
    9.9506   -6.9145    0.0000 C   0  0
   12.0988   -7.3098    0.0000 C   0  0
   15.7251   -7.6019    0.0000 C   0  0  2  0  0  0
    6.3760   -7.3555    0.0000 N   0  0
    4.9381   -7.3727    0.0000 C   0  0  1  0  0  0
   10.6724   -7.3212    0.0000 N   0  0
    8.5128   -6.9259    0.0000 N   0  0
   12.8092   -6.8801    0.0000 N   0  0
    7.0806   -6.9317    0.0000 C   0  0  1  0  0  0
   11.3828   -6.8973    0.0000 C   0  0  1  0  0  0
    9.2346   -7.3269    0.0000 C   0  0  2  0  0  0
   15.9371   -8.4097    0.0000 C   0  0
   13.5310   -7.3098    0.0000 C   0  0  1  0  0  0
   14.9173  -10.6266    0.0000 C   0  0
    4.2277   -6.9603    0.0000 N   0  0
    3.5059   -7.3785    0.0000 C   0  0
   14.2013  -11.0219    0.0000 N   0  0
   14.2528   -6.0724    0.0000 O   0  0
    2.0681   -4.9152    0.0000 C   0  0
    5.6427   -6.1239    0.0000 O   0  0
    9.9392   -6.0896    0.0000 O   0  0
   12.1046   -8.1347    0.0000 O   0  0
    7.8082   -8.1691    0.0000 O   0  0
    7.0806   -6.1068    0.0000 C   0  0
    2.0681   -5.7401    0.0000 C   0  0
   15.3470   -8.9882    0.0000 O   0  0
   11.3656   -6.0724    0.0000 C   0  0
    9.2460   -8.1519    0.0000 C   0  0
    3.5117   -8.2034    0.0000 O   0  0
   14.9231   -9.8017    0.0000 N   0  0
    2.7841   -6.1411    0.0000 C   0  0
   16.7276   -8.6159    0.0000 N   0  0
   15.6277  -11.0391    0.0000 N   0  0
   14.9918   -6.4848    0.0000 C   0  0
    1.3463   -4.5085    0.0000 C   0  0
    2.7899   -6.9660    0.0000 C   0  0
    7.7910   -5.6771    0.0000 C   0  0
    9.2174   -4.8522    0.0000 C   0  0
    4.9495   -8.1862    0.0000 C   0  0
    7.7852   -4.8636    0.0000 C   0  0
    8.5128   -6.0896    0.0000 C   0  0
    8.4956   -4.4397    0.0000 C   0  0
    9.2288   -5.6771    0.0000 C   0  0
   16.2464   -6.9660    0.0000 C   0  0
    9.9220   -4.4340    0.0000 O   0  0
    5.6599   -8.5987    0.0000 O   0  0
   15.7996   -6.2786    0.0000 C   0  0
   13.5139   -8.1347    0.0000 C   0  0
    0.6417   -5.7459    0.0000 C   0  0
   12.0817   -5.6599    0.0000 C   0  0
    9.9564   -8.5643    0.0000 C   0  0
    1.3635   -6.1583    0.0000 C   0  0
    2.7727   -4.5027    0.0000 C   0  0
    0.6417   -4.9209    0.0000 C   0  0
   16.9338   -9.4236    0.0000 C   0  0
   14.2185   -9.3835    0.0000 C   0  0
    1.3463   -3.6835    0.0000 C   0  0
   14.2299   -8.5586    0.0000 C   0  0
   10.6438   -8.1003    0.0000 C   0  0
   10.0537   -9.3835    0.0000 C   0  0
   12.0702   -4.8350    0.0000 C   0  0
   12.8035   -6.0552    0.0000 C   0  0
   17.7358   -9.6299    0.0000 C   0  0
    2.7727   -3.6778    0.0000 C   0  0
    2.0509   -3.2711    0.0000 C   0  0
  2  1  1  0
  3  8  1  0
  4 11  1  0
  5 10  1  0
  6 12  1  0
  7  1  1  0
  8 13  1  0
  9  3  1  0
 10 14  1  0
 11 15  1  0
 12 17  1  0
 13  4  1  0
 14  6  1  0
 15  5  1  0
  7 16  1  1
 17  2  1  0
 18 34  2  0
 19  9  1  0
 20 19  1  0
 21 18  1  0
 22  2  2  0
 23 29  2  0
 24  3  2  0
 25  5  2  0
 26  6  2  0
 27  4  2  0
 13 28  1  1
 29 35  1  0
 30 16  2  0
 14 31  1  1
 15 32  1  1
 33 20  2  0
 34 60  1  0
 35 40  1  0
 36 16  1  0
 37 18  1  0
 38  1  1  0
 39 23  1  0
 40 20  1  0
 41 28  1  0
 42 47  2  0
  9 43  1  6
 44 41  1  0
 45 41  2  0
 46 44  2  0
 47 45  1  0
 48  7  1  0
 49 42  1  0
 50 43  1  0
 51 38  1  0
 17 52  1  6
 53 56  2  0
 54 31  1  0
 55 32  1  0
 56 29  1  0
 57 23  1  0
 58 53  1  0
 59 36  1  0
 60 62  1  0
 61 39  1  0
 62 52  1  0
 63 55  1  0
 64 55  1  0
 65 54  1  0
 66 54  1  0
 67 59  1  0
 68 57  2  0
 69 68  1  0
 51 48  1  0
 46 42  1  0
 39 58  2  0
 69 61  2  0
M  END