
  Mrv0541 04051115152D          

 18 20  0  0  0  0            999 V2000
    0.6242    0.0267    0.0000 C   0  0  0  0  0  0  0  0  0  0  0  0
    1.3387   -0.3858    0.0000 C   0  0  0  0  0  0  0  0  0  0  0  0
    2.0532    0.0267    0.0000 C   0  0  0  0  0  0  0  0  0  0  0  0
   -0.6453    0.4392    0.0000 C   0  0  0  0  0  0  0  0  0  0  0  0
    1.3387   -1.2108    0.0000 C   0  0  0  0  0  0  0  0  0  0  0  0
   -1.4703    0.4392    0.0000 C   0  0  1  0  0  0  0  0  0  0  0  0
   -2.6898   -0.1037    0.0000 C   0  0  0  0  0  0  0  0  0  0  0  0
   -1.3841   -0.3813    0.0000 C   0  0  0  0  0  0  0  0  0  0  0  0
    2.0532    0.8517    0.0000 C   0  0  0  0  0  0  0  0  0  0  0  0
    1.3387    1.2642    0.0000 C   0  0  0  0  0  0  0  0  0  0  0  0
    0.6242    0.8517    0.0000 C   0  0  0  0  0  0  0  0  0  0  0  0
   -0.1604    1.1066    0.0000 N   0  0  0  0  0  0  0  0  0  0  0  0
   -0.1604   -0.2282    0.0000 N   0  0  0  0  0  0  0  0  0  0  0  0
    2.0532   -1.6233    0.0000 N   0  0  0  0  0  0  0  0  0  0  0  0
    0.6242   -1.6233    0.0000 O   0  0  0  0  0  0  0  0  0  0  0  0
   -2.2773    0.6107    0.0000 N   0  0  0  0  0  0  0  0  0  0  0  0
   -2.1377   -0.7168    0.0000 C   0  0  0  0  0  0  0  0  0  0  0  0
   -1.3841    1.2597    0.0000 C   0  0  0  0  0  0  0  0  0  0  0  0
  6 18  1  6  0  0  0
  6  8  1  0  0  0  0
  6 16  1  0  0  0  0
  6  4  1  1  0  0  0
 17  8  1  0  0  0  0
  7 16  1  0  0  0  0
  4 12  2  0  0  0  0
 11 12  1  0  0  0  0
  4 13  1  0  0  0  0
  7 17  1  0  0  0  0
  1 13  1  0  0  0  0
 10 11  2  0  0  0  0
 11  1  1  0  0  0  0
  9 10  1  0  0  0  0
  1  2  2  0  0  0  0
  9  3  2  0  0  0  0
  2  3  1  0  0  0  0
  5  2  1  0  0  0  0
  5 14  1  0  0  0  0
  5 15  2  0  0  0  0
M  END