
  CDK    9/16/09,10:7

 28 28  0  0  0  0  0  0  0  0999 V2000
    8.6762   -6.1829    0.0000 Br  0  0  0  0  0  0  0  0  0  0  0  0
    2.9104   -9.5471    0.0000 Br  0  0  0  0  0  0  0  0  0  0  0  0
    6.6763   -7.5487    0.0000 C   0  0  0  0  0  0  0  0  0  0  0  0
    6.6750   -8.3763    0.0000 C   0  0  0  0  0  0  0  0  0  0  0  0
    7.3880   -8.7892    0.0000 C   0  0  0  0  0  0  0  0  0  0  0  0
    8.1073   -8.3758    0.0000 C   0  0  0  0  0  0  0  0  0  0  0  0
    8.1042   -7.5447    0.0000 C   0  0  0  0  0  0  0  0  0  0  0  0
    7.3861   -7.1359    0.0000 C   0  0  0  0  0  0  0  0  0  0  0  0
    5.9600   -8.7878    0.0000 C   0  0  0  0  0  0  0  0  0  0  0  0
    5.2461   -8.3743    0.0000 N   0  0  0  0  0  0  0  0  0  0  0  0
    5.2526   -7.5486    0.0000 C   0  0  0  0  0  0  0  0  0  0  0  0
    4.5396   -7.1351    0.0000 C   0  0  0  0  0  0  0  0  0  0  0  0
    3.8236   -7.5467    0.0000 C   0  0  0  0  0  0  0  0  0  0  0  0
    3.8250   -8.3759    0.0000 C   0  0  0  0  0  0  0  0  0  0  0  0
    4.5386   -8.7857    0.0000 C   0  0  0  0  0  0  0  0  0  0  0  0
    5.9616   -7.1368    0.0000 C   0  0  0  0  0  0  0  0  0  0  0  0
    5.9608   -6.3118    0.0000 N   0  0  0  0  0  0  0  0  0  0  0  0
    6.6780   -5.9028    0.0000 C   0  0  0  0  0  0  0  0  0  0  0  0
    6.6777   -5.0786    0.0000 C   0  0  0  0  0  0  0  0  0  0  0  0
    5.9623   -4.6659    0.0000 C   0  0  0  0  0  0  0  0  0  0  0  0
    5.2458   -5.0833    0.0000 C   0  0  0  0  0  0  0  0  0  0  0  0
    5.2496   -5.9062    0.0000 C   0  0  0  0  0  0  0  0  0  0  0  0
    5.9605   -3.8409    0.0000 C   0  0  0  0  0  0  0  0  0  0  0  0
    6.6740   -3.4268    0.0000 N   0  0  0  0  0  0  0  0  0  0  0  0
    3.1091   -7.1342    0.0000 C   0  0  0  0  0  0  0  0  0  0  0  0
    2.3946   -7.5465    0.0000 N   0  0  0  0  0  0  0  0  0  0  0  0
    7.3895   -3.8377    0.0000 O   0  0  0  0  0  0  0  0  0  0  0  0
    2.3945   -8.3715    0.0000 O   0  0  0  0  0  0  0  0  0  0  0  0
 13 14  1  0  0  0  0 
  3  4  2  0  0  0  0 
 14 15  2  0  0  0  0 
 15 10  1  0  0  0  0 
  7  8  2  0  0  0  0 
  3 16  1  0  0  0  0 
  8  3  1  0  0  0  0 
 16 17  1  0  0  0  0 
 17 18  2  0  0  0  0 
  4  9  1  0  0  0  0 
 18 19  1  0  0  0  0 
  4  5  1  0  0  0  0 
 19 20  2  0  0  0  0 
  9 10  1  0  0  0  0 
 20 21  1  0  0  0  0 
 21 22  2  0  0  0  0 
 22 17  1  0  0  0  0 
 10 11  2  0  0  0  0 
 20 23  1  0  0  0  0 
  5  6  2  0  0  0  0 
 23 24  2  0  0  0  0 
 11 12  1  0  0  0  0 
 13 25  1  0  0  0  0 
 25 26  2  0  0  0  0 
 12 13  2  0  0  0  0 
 24 27  1  0  0  0  0 
  6  7  1  0  0  0  0 
 26 28  1  0  0  0  0 
M  CHG  1   1  -1
M  CHG  1   2  -1
M  CHG  1  10   1
M  CHG  1  17   1
M  END