
  CDK    9/16/09,9:56

 37 40  0  0  0  0  0  0  0  0999 V2000
   -4.3083    1.6292    0.0000 C   0  0  0  0  0  0  0  0  0  0  0  0
   -4.3083    0.8042    0.0000 C   0  0  0  0  0  0  0  0  0  0  0  0
   -3.5963    0.3958    0.0000 C   0  0  0  0  0  0  0  0  0  0  0  0
   -2.8843    0.8042    0.0000 O   0  0  0  0  0  0  0  0  0  0  0  0
   -2.8843    1.6292    0.0000 C   0  0  0  0  0  0  0  0  0  0  0  0
   -3.5963    2.0458    0.0000 C   0  0  0  0  0  0  0  0  0  0  0  0
   -2.1686    2.0396    0.0000 C   0  0  0  0  0  0  0  0  0  0  0  0
   -1.4554    1.6250    0.0000 C   0  0  0  0  0  0  0  0  0  0  0  0
   -0.7397    2.0354    0.0000 C   0  0  0  0  0  0  0  0  0  0  0  0
   -0.0264    1.6208    0.0000 C   0  0  0  0  0  0  0  0  0  0  0  0
   -0.7373    2.8604    0.0000 C   0  0  0  0  0  0  0  0  0  0  0  0
   -0.0288    0.7958    0.0000 C   0  0  0  0  0  0  0  0  0  0  0  0
    0.6844    0.3812    0.0000 C   0  0  0  0  0  0  0  0  0  0  0  0
   -0.7445    0.3854    0.0000 C   0  0  0  0  0  0  0  0  0  0  0  0
    0.6820   -0.4438    0.0000 C   0  0  0  0  0  0  0  0  0  0  0  0
    1.3953   -0.8584    0.0000 C   0  0  0  0  0  0  0  0  0  0  0  0
   -0.0337   -0.8542    0.0000 C   0  0  0  0  0  0  0  0  0  0  0  0
   -3.5968   -0.4283    0.0000 C   0  0  0  0  0  0  0  0  0  0  0  0
   -4.3129   -0.8402    0.0000 C   0  0  0  0  0  0  0  0  0  0  0  0
   -4.3132   -1.6644    0.0000 C   0  0  0  0  0  0  0  0  0  0  0  0
   -3.5982   -2.0778    0.0000 C   0  0  0  0  0  0  0  0  0  0  0  0
   -5.0279   -2.0766    0.0000 O   0  0  0  0  0  0  0  0  0  0  0  0
   -5.0269   -0.4270    0.0000 O   0  0  0  0  0  0  0  0  0  0  0  0
   -2.1750    1.2167    0.0000 H   0  0  0  0  0  0  0  0  0  0  0  0
   -2.8875   -0.0167    0.0000 H   0  0  0  0  0  0  0  0  0  0  0  0
   -5.0222    0.3906    0.0000 C   0  0  0  0  0  0  0  0  0  0  0  0
   -3.5963    2.8708    0.0000 C   0  0  0  0  0  0  0  0  0  0  0  0
   -5.0240    2.0396    0.0000 O   0  0  0  0  0  0  0  0  0  0  0  0
   -2.8845   -0.8380    0.0000 C   0  0  0  0  0  0  0  0  0  0  0  0
   -2.8787   -1.6586    0.0000 C   0  0  0  0  0  0  0  0  0  0  0  0
   -2.0964   -1.9067    0.0000 O   0  0  0  0  0  0  0  0  0  0  0  0
   -1.6187   -1.2393    0.0000 C   0  0  0  0  0  0  0  0  0  0  0  0
   -2.1058   -0.5789    0.0000 C   0  0  0  0  0  0  0  0  0  0  0  0
   -0.2542   -1.6500    0.0000 C   0  0  0  0  0  0  0  0  0  0  0  0
   -1.0375   -0.6500    0.0000 O   0  0  0  0  0  0  0  0  0  0  0  0
    0.1443   -2.3724    0.0000 C   0  0  0  0  0  0  0  0  0  0  0  0
   -3.5968   -2.9028    0.0000 C   0  0  0  0  0  0  0  0  0  0  0  0
 18 19  2  0  0  0  0 
  2  3  1  0  0  0  0 
 19 20  1  0  0  0  0 
  9 10  1  0  0  0  0 
 20 21  1  0  0  0  0 
 21 30  2  0  0  0  0 
 29 18  1  0  0  0  0 
  3 18  1  0  0  0  0 
  3  4  1  0  0  0  0 
 20 22  2  0  0  0  0 
  9 11  1  6  0  0  0 
 19 23  1  0  0  0  0 
  4  5  1  0  0  0  0 
  5 24  1  6  0  0  0 
 10 12  2  0  0  0  0 
  3 25  1  6  0  0  0 
  5  6  1  0  0  0  0 
  2 26  1  6  0  0  0 
 12 13  1  0  0  0  0 
  6 27  1  1  0  0  0 
  1 28  1  1  0  0  0 
 29 30  1  0  0  0  0 
 12 14  1  0  0  0  0 
  5  7  1  0  0  0  0 
 13 15  1  0  0  0  0 
  1  2  1  0  0  0  0 
 15 16  1  1  0  0  0 
 30 31  1  0  0  0  0 
 31 32  1  0  0  0  0 
 32 33  1  0  0  0  0 
 33 29  2  0  0  0  0 
  7  8  1  0  0  0  0 
 17 34  1  0  0  0  0 
 32 34  1  0  0  0  0 
 15 17  1  0  0  0  0 
 32 35  1  1  0  0  0 
  1  6  1  0  0  0  0 
 34 36  1  6  0  0  0 
  8  9  1  0  0  0  0 
 21 37  1  0  0  0  0 
M  END