
  CDK    9/16/09,9:48

 83 91  0  0  0  0  0  0  0  0999 V2000
    3.3447   -8.0406    0.0000 N   0  0  0  0  0  0  0  0  0  0  0  0
    2.2733  -11.9257    0.0000 N   0  0  0  0  0  0  0  0  0  0  0  0
    3.0944  -11.9105    0.0000 C   0  0  0  0  0  0  0  0  0  0  0  0
    2.6590  -10.1117    0.0000 N   0  0  0  0  0  0  0  0  0  0  0  0
    1.9192  -10.4792    0.0000 C   0  0  0  0  0  0  0  0  0  0  0  0
    1.7514  -11.2881    0.0000 C   0  0  0  0  0  0  0  0  0  0  0  0
    0.9684  -11.5457    0.0000 C   0  0  0  0  0  0  0  0  0  0  0  0
    0.3526  -10.9953    0.0000 C   0  0  0  0  0  0  0  0  0  0  0  0
    0.5250  -10.1842    0.0000 C   0  0  0  0  0  0  0  0  0  0  0  0
    1.3078   -9.9304    0.0000 N   0  0  0  0  0  0  0  0  0  0  0  0
    3.5982  -11.2584    0.0000 C   0  0  0  0  0  0  0  0  0  0  0  0
    3.4077  -10.4553    0.0000 C   0  0  0  0  0  0  0  0  0  0  0  0
    4.0073   -9.8909    0.0000 C   0  0  0  0  0  0  0  0  0  0  0  0
    4.7974  -10.1283    0.0000 C   0  0  0  0  0  0  0  0  0  0  0  0
    4.9847  -10.9353    0.0000 C   0  0  0  0  0  0  0  0  0  0  0  0
    4.3837  -11.4962    0.0000 C   0  0  0  0  0  0  0  0  0  0  0  0
    3.4649  -12.6476    0.0000 O   0  0  0  0  0  0  0  0  0  0  0  0
    2.6462   -9.2868    0.0000 C   0  0  0  0  0  0  0  0  0  0  0  0
    1.9255   -8.8854    0.0000 O   0  0  0  0  0  0  0  0  0  0  0  0
    3.3542   -8.8634    0.0000 C   0  0  0  0  0  0  0  0  0  0  0  0
   -3.5360   -2.5680    0.0000 N   0  0  0  0  0  0  0  0  0  0  0  0
   -3.1030   -3.2658    0.0000 C   0  0  0  0  0  0  0  0  0  0  0  0
   -1.7800   -1.9716    0.0000 N   0  0  0  0  0  0  0  0  0  0  0  0
   -2.4742   -1.5239    0.0000 C   0  0  0  0  0  0  0  0  0  0  0  0
   -3.2551   -1.7934    0.0000 C   0  0  0  0  0  0  0  0  0  0  0  0
   -3.8769   -1.2524    0.0000 C   0  0  0  0  0  0  0  0  0  0  0  0
   -3.7190   -0.4417    0.0000 C   0  0  0  0  0  0  0  0  0  0  0  0
   -2.9338   -0.1750    0.0000 C   0  0  0  0  0  0  0  0  0  0  0  0
   -2.3153   -0.7178    0.0000 N   0  0  0  0  0  0  0  0  0  0  0  0
   -2.2849   -3.3651    0.0000 C   0  0  0  0  0  0  0  0  0  0  0  0
   -1.6923   -2.7908    0.0000 C   0  0  0  0  0  0  0  0  0  0  0  0
   -0.9007   -3.0173    0.0000 C   0  0  0  0  0  0  0  0  0  0  0  0
   -0.7005   -3.8177    0.0000 C   0  0  0  0  0  0  0  0  0  0  0  0
   -1.2982   -4.3913    0.0000 C   0  0  0  0  0  0  0  0  0  0  0  0
   -2.0875   -4.1618    0.0000 C   0  0  0  0  0  0  0  0  0  0  0  0
   -3.5468   -3.9612    0.0000 O   0  0  0  0  0  0  0  0  0  0  0  0
   -1.0777   -1.5387    0.0000 C   0  0  0  0  0  0  0  0  0  0  0  0
   -1.1014   -0.7141    0.0000 O   0  0  0  0  0  0  0  0  0  0  0  0
   -0.3517   -1.9305    0.0000 C   0  0  0  0  0  0  0  0  0  0  0  0
    0.3506   -1.4976    0.0000 N   0  0  0  0  0  0  0  0  0  0  0  0
    1.4201    2.3880    0.0000 N   0  0  0  0  0  0  0  0  0  0  0  0
    0.5990    2.3723    0.0000 C   0  0  0  0  0  0  0  0  0  0  0  0
    1.0354    0.5738    0.0000 N   0  0  0  0  0  0  0  0  0  0  0  0
    1.7749    0.9417    0.0000 C   0  0  0  0  0  0  0  0  0  0  0  0
    1.9423    1.7507    0.0000 C   0  0  0  0  0  0  0  0  0  0  0  0
    2.7252    2.0086    0.0000 C   0  0  0  0  0  0  0  0  0  0  0  0
    3.3413    1.4586    0.0000 C   0  0  0  0  0  0  0  0  0  0  0  0
    3.1693    0.6474    0.0000 C   0  0  0  0  0  0  0  0  0  0  0  0
    2.3866    0.3932    0.0000 N   0  0  0  0  0  0  0  0  0  0  0  0
    0.0956    1.7200    0.0000 C   0  0  0  0  0  0  0  0  0  0  0  0
    0.2864    0.9171    0.0000 C   0  0  0  0  0  0  0  0  0  0  0  0
   -0.3128    0.3523    0.0000 C   0  0  0  0  0  0  0  0  0  0  0  0
   -1.1031    0.5893    0.0000 C   0  0  0  0  0  0  0  0  0  0  0  0
   -1.2908    1.3963    0.0000 C   0  0  0  0  0  0  0  0  0  0  0  0
   -0.6901    1.9575    0.0000 C   0  0  0  0  0  0  0  0  0  0  0  0
    0.2281    3.1093    0.0000 O   0  0  0  0  0  0  0  0  0  0  0  0
    1.0485   -0.2511    0.0000 C   0  0  0  0  0  0  0  0  0  0  0  0
    1.7695   -0.6521    0.0000 O   0  0  0  0  0  0  0  0  0  0  0  0
    0.3407   -0.6749    0.0000 C   0  0  0  0  0  0  0  0  0  0  0  0
    1.0734   -1.8955    0.0000 C   0  0  0  0  0  0  0  0  0  0  0  0
    1.7793   -1.4685    0.0000 C   0  0  0  0  0  0  0  0  0  0  0  0
    2.5020   -1.8663    0.0000 C   0  0  0  0  0  0  0  0  0  0  0  0
    3.2079   -1.4393    0.0000 C   0  0  0  0  0  0  0  0  0  0  0  0
    3.9307   -1.8372    0.0000 C   0  0  0  0  0  0  0  0  0  0  0  0
    4.6366   -1.4102    0.0000 C   0  0  0  0  0  0  0  0  0  0  0  0
    5.3593   -1.8080    0.0000 N   0  0  0  0  0  0  0  0  0  0  0  0
    6.0652   -1.3810    0.0000 C   0  0  0  0  0  0  0  0  0  0  0  0
    5.3761   -2.6329    0.0000 C   0  0  0  0  0  0  0  0  0  0  0  0
    6.0989   -3.0307    0.0000 C   0  0  0  0  0  0  0  0  0  0  0  0
    6.1157   -3.8555    0.0000 C   0  0  0  0  0  0  0  0  0  0  0  0
    6.8384   -4.2534    0.0000 C   0  0  0  0  0  0  0  0  0  0  0  0
    6.8553   -5.0782    0.0000 C   0  0  0  0  0  0  0  0  0  0  0  0
    7.5780   -5.4760    0.0000 C   0  0  0  0  0  0  0  0  0  0  0  0
    7.5948   -6.3008    0.0000 C   0  0  0  0  0  0  0  0  0  0  0  0
    8.3176   -6.6987    0.0000 C   0  0  0  0  0  0  0  0  0  0  0  0
    8.3344   -7.5235    0.0000 N   0  0  0  0  0  0  0  0  0  0  0  0
    9.0572   -7.9213    0.0000 C   0  0  0  0  0  0  0  0  0  0  0  0
    7.6285   -7.9505    0.0000 C   0  0  0  0  0  0  0  0  0  0  0  0
    6.9058   -7.5527    0.0000 C   0  0  0  0  0  0  0  0  0  0  0  0
    6.1999   -7.9797    0.0000 C   0  0  0  0  0  0  0  0  0  0  0  0
    5.4771   -7.5818    0.0000 C   0  0  0  0  0  0  0  0  0  0  0  0
    4.7712   -8.0088    0.0000 C   0  0  0  0  0  0  0  0  0  0  0  0
    4.0485   -7.6110    0.0000 C   0  0  0  0  0  0  0  0  0  0  0  0
 18 19  2  0  0  0  0 
 39 40  1  0  0  0  0 
  5  4  1  0  0  0  0 
 18 20  1  0  0  0  0 
 41 42  1  0  0  0  0 
 42 50  1  0  0  0  0 
 41 45  1  0  0  0  0 
 20  1  1  0  0  0  0 
 51 43  1  0  0  0  0 
 44 43  1  0  0  0  0 
  9 10  2  0  0  0  0 
 10  5  1  0  0  0  0 
 44 45  2  0  0  0  0 
 21 22  1  0  0  0  0 
 45 46  1  0  0  0  0 
 22 30  1  0  0  0  0 
 46 47  2  0  0  0  0 
 21 25  1  0  0  0  0 
 47 48  1  0  0  0  0 
  2  3  1  0  0  0  0 
 48 49  2  0  0  0  0 
 49 44  1  0  0  0  0 
 31 23  1  0  0  0  0 
 24 23  1  0  0  0  0 
 50 51  2  0  0  0  0 
  3 11  1  0  0  0  0 
 51 52  1  0  0  0  0 
 11 12  2  0  0  0  0 
 52 53  2  0  0  0  0 
 24 25  2  0  0  0  0 
 53 54  1  0  0  0  0 
  5  6  2  0  0  0  0 
 54 55  2  0  0  0  0 
 55 50  1  0  0  0  0 
 25 26  1  0  0  0  0 
 42 56  2  0  0  0  0 
 12 13  1  0  0  0  0 
 43 57  1  0  0  0  0 
 26 27  2  0  0  0  0 
 57 58  2  0  0  0  0 
  2  6  1  0  0  0  0 
 57 59  1  0  0  0  0 
 59 40  1  0  0  0  0 
 27 28  1  0  0  0  0 
 40 60  1  0  0  0  0 
 13 14  2  0  0  0  0 
 60 61  1  0  0  0  0 
 28 29  2  0  0  0  0 
 61 62  1  0  0  0  0 
 29 24  1  0  0  0  0 
 62 63  1  0  0  0  0 
  6  7  1  0  0  0  0 
 63 64  1  0  0  0  0 
 14 15  1  0  0  0  0 
 64 65  1  0  0  0  0 
 30 31  2  0  0  0  0 
 65 66  1  0  0  0  0 
 66 67  1  0  0  0  0 
 31 32  1  0  0  0  0 
 66 68  1  0  0  0  0 
 15 16  2  0  0  0  0 
 68 69  1  0  0  0  0 
 32 33  2  0  0  0  0 
 69 70  1  0  0  0  0 
 16 11  1  0  0  0  0 
 70 71  1  0  0  0  0 
 33 34  1  0  0  0  0 
 71 72  1  0  0  0  0 
  7  8  2  0  0  0  0 
 72 73  1  0  0  0  0 
 34 35  2  0  0  0  0 
 73 74  1  0  0  0  0 
 35 30  1  0  0  0  0 
 74 75  1  0  0  0  0 
  3 17  2  0  0  0  0 
 75 76  1  0  0  0  0 
 22 36  2  0  0  0  0 
 76 77  1  0  0  0  0 
 12  4  1  0  0  0  0 
 76 78  1  0  0  0  0 
 23 37  1  0  0  0  0 
 78 79  1  0  0  0  0 
  4 18  1  0  0  0  0 
 79 80  1  0  0  0  0 
 37 38  2  0  0  0  0 
 80 81  1  0  0  0  0 
  8  9  1  0  0  0  0 
 81 82  1  0  0  0  0 
 37 39  1  0  0  0  0 
 82 83  1  0  0  0  0 
 83  1  1  0  0  0  0 
M  END