
  SciTegic12161611412D

 22 23  0  0  0  0            999 V2000
    5.4984   -5.5497    0.0000 C   0  0
    4.0312   -5.2378    0.0000 C   0  0
    3.8933   -3.7570    0.0000 C   0  0
    5.2447   -3.1359    0.0000 N   0  0
    6.2484   -4.2507    0.0000 C   0  0
    7.4419   -4.1252    0.0000 C   0  0
    3.1347   -6.0355    0.0000 C   0  0
    6.1107   -6.9172    0.0000 C   0  0
    5.4070   -7.8892    0.0000 C   0  0
    7.3043   -7.0409    0.0000 O   0  0
    2.5951   -3.0039    0.0000 C   0  0
    2.5973   -1.5031    0.0000 N   0  0
    1.5548   -3.6021    0.0000 O   0  0
    1.2990   -0.7500    0.0000 C   0  0
    1.2990    0.7500    0.0000 C   0  0
    0.0000    1.5000    0.0000 C   0  0
   -1.2990    0.7500    0.0000 C   0  0
   -1.2990   -0.7500    0.0000 C   0  0
    0.0000   -1.5000    0.0000 C   0  0
   -0.0031    3.0008    0.0000 C   0  0
    1.0351    3.6026    0.0000 O   0  0
   -1.0432    3.5993    0.0000 O   0  0
  1  2  1  0
  2  3  2  0
  3  4  1  0
  4  5  1  0
  5  1  2  0
  5  6  1  0
  2  7  1  0
  1  8  1  0
  8  9  1  0
  8 10  2  0
  3 11  1  0
 11 12  1  0
 11 13  2  0
 12 14  1  0
 14 15  2  0
 15 16  1  0
 16 17  2  0
 17 18  1  0
 18 19  2  0
 19 14  1  0
 16 20  1  0
 20 21  1  0
 20 22  2  0
M  END