
  SciTegic01161211262D

 46 48  0  0  0  0            999 V2000
    4.6833   -5.8875    0.0000 C   0  0
    3.2542   -5.0708    0.0000 C   0  0
    4.6833   -5.0625    0.0000 N   0  0
    3.9667   -4.6583    0.0000 C   0  0  1  0  0  0
    2.5417   -4.6583    0.0000 N   0  0
    5.4042   -6.2958    0.0000 N   0  0
    3.9667   -3.8333    0.0000 C   0  0
    3.9708   -6.3000    0.0000 O   0  0
    3.2542   -5.8958    0.0000 O   0  0
    6.1042   -3.4083    0.0000 C   0  0
    4.6792   -3.4125    0.0000 C   0  0
    5.3917   -3.8250    0.0000 C   0  0
   -0.3208   -7.1458    0.0000 P   0  3
    6.0958   -2.5875    0.0000 C   0  0
    1.8292   -5.0750    0.0000 C   0  0
    5.3792   -2.1750    0.0000 C   0  0
   -0.3208   -6.3208    0.0000 C   0  0
    0.3958   -5.9083    0.0000 C   0  0
    4.6667   -2.5958    0.0000 C   0  0
    6.1167   -5.8833    0.0000 C   0  0
    1.8292   -5.9083    0.0000 C   0  0
    1.1083   -4.6625    0.0000 C   0  0
    1.1083   -6.3208    0.0000 C   0  0
    0.3958   -5.0833    0.0000 C   0  0
    6.8167   -3.8208    0.0000 C   0  0
   -1.0333   -7.5583    0.0000 C   0  0
    0.3958   -7.5583    0.0000 C   0  0
   -0.3292   -7.9708    0.0000 C   0  0
    6.8042   -2.1750    0.0000 C   0  0
    6.1042   -5.0625    0.0000 C   0  0
    6.8208   -6.2958    0.0000 C   0  0
   -1.7458   -7.1458    0.0000 C   0  0
    0.3917   -8.3833    0.0000 C   0  0
   -1.0458   -8.3708    0.0000 C   0  0
    1.1083   -8.7958    0.0000 C   0  0
   -2.4583   -7.5583    0.0000 C   0  0
   -1.0458   -9.1958    0.0000 C   0  0
   -1.7708   -9.6083    0.0000 C   0  0
    1.1083   -9.6208    0.0000 C   0  0
   -3.1792   -7.1375    0.0000 C   0  0
    7.5167   -3.4083    0.0000 C   0  0
    7.5167   -2.5833    0.0000 C   0  0
    6.8208   -4.6458    0.0000 C   0  0
    7.5417   -5.8833    0.0000 C   0  0
    7.5417   -5.0583    0.0000 C   0  0
    5.5500   -8.7708    0.0000 Br  0  5
  2  4  1  0
  3  1  1  0
  4  3  1  0
  5  2  1  0
  6  1  1  0
  4  7  1  6
  8  1  2  0
  9  2  2  0
 10 12  1  0
 11  7  1  0
 12 11  2  0
 13 17  1  0
 14 16  1  0
 15  5  1  0
 16 19  2  0
 17 18  1  0
 18 24  2  0
 19 11  1  0
 20  6  1  0
 21 15  1  0
 22 15  2  0
 23 21  2  0
 24 22  1  0
 25 10  2  0
 26 13  1  0
 27 13  1  0
 28 13  1  0
 29 14  2  0
 30 20  1  0
 31 20  1  0
 32 26  1  0
 33 27  1  0
 34 28  1  0
 35 33  1  0
 36 32  1  0
 37 34  1  0
 38 37  1  0
 39 35  1  0
 40 36  1  0
 41 25  1  0
 42 29  1  0
 43 30  1  0
 44 31  1  0
 45 44  1  0
 43 45  1  0
 14 10  1  0
 18 23  1  0
 41 42  2  0
M  CHG  2  13   1  46  -1
M  END