
          11280715432D 1   1.00000     0.00000     0

 26 28  0     1  0            999 V2000
   -0.7833   -0.9917    0.0000 C   0  0  0  0  0  0           0  0  0
    0.0375   -1.1167    0.0000 N   0  0  0  0  0  0           0  0  0
    0.4125   -0.3917    0.0000 C   0  0  0  0  0  0           0  0  0
   -1.3750   -1.5542    0.0000 N   0  0  0  0  0  0           0  0  0
   -0.1833    0.1958    0.0000 C   0  0  0  0  0  0           0  0  0
   -0.9000   -0.1792    0.0000 S   0  0  0  0  0  0           0  0  0
   -2.1583   -1.3167    0.0000 C   0  0  0  0  0  0           0  0  0
   -0.0625    1.0208    0.0000 C   0  0  0  0  0  0           0  0  0
    1.2167   -0.2542    0.0000 C   0  0  0  0  0  0           0  0  0
   -2.7583   -1.8917    0.0000 O   0  0  0  0  0  0           0  0  0
   -2.3458   -0.5167    0.0000 C   0  0  1  0  0  0           0  0  0
    1.7375   -0.9042    0.0000 O   0  0  0  0  0  0           0  0  0
   -3.1250   -0.2792    0.0000 N   0  0  0  0  0  0           0  0  0
   -0.7208    1.5208    0.0000 C   0  0  0  0  0  0           0  0  0
    2.5542   -0.7667    0.0000 C   0  0  0  0  0  0           0  0  0
   -1.7458    0.0458    0.0000 C   0  0  0  0  0  0           0  0  0
   -1.4750    1.1958    0.0000 C   0  0  0  0  0  0           0  0  0
   -0.6208    2.3333    0.0000 C   0  0  0  0  0  0           0  0  0
    3.0792   -1.4167    0.0000 C   0  0  0  0  0  0           0  0  0
    2.8417   -0.0042    0.0000 C   0  0  0  0  0  0           0  0  0
    3.8875   -1.2792    0.0000 C   0  0  0  0  0  0           0  0  0
    3.6542    0.1333    0.0000 C   0  0  0  0  0  0           0  0  0
   -1.2750    2.8333    0.0000 C   0  0  0  0  0  0           0  0  0
   -2.1375    1.6958    0.0000 C   0  0  0  0  0  0           0  0  0
   -2.0250    2.5083    0.0000 C   0  0  0  0  0  0           0  0  0
    4.1792   -0.5167    0.0000 C   0  0  0  0  0  0           0  0  0
  2  1  2  0     0  0
  3  2  1  0     0  0
  4  1  1  0     0  0
  5  6  1  0     0  0
  6  1  1  0     0  0
  7  4  1  0     0  0
  8  5  1  0     0  0
  9  3  1  0     0  0
 10  7  2  0     0  0
 11  7  1  0     0  0
 12  9  1  0     0  0
 13 11  1  0     0  0
 14  8  1  0     0  0
 15 12  1  0     0  0
 11 16  1  1     0  0
 17 14  1  0     0  0
 18 14  2  0     0  0
 19 15  2  0     0  0
 20 15  1  0     0  0
 21 19  1  0     0  0
 22 20  2  0     0  0
 23 18  1  0     0  0
 24 17  2  0     0  0
 25 23  2  0     0  0
 26 22  1  0     0  0
  5  3  2  0     0  0
 25 24  1  0     0  0
 26 21  2  0     0  0
M  END