
  SciTegic04091415222D

 28 31  0  0  0  0            999 V2000
   24.6586  -29.1201    0.0000 C   0  0
   26.0864  -29.1165    0.0000 C   0  0
   25.3707  -28.7072    0.0000 C   0  0
   26.0892  -29.9473    0.0000 C   0  0
   26.0854  -31.5988    0.0000 C   0  0
   26.8037  -31.1824    0.0000 C   0  0
   26.8018  -30.3586    0.0000 C   0  0
   25.3716  -30.3587    0.0000 C   0  0
   24.6574  -29.9478    0.0000 C   0  0
   23.9466  -30.3609    0.0000 C   0  0
   23.9488  -31.1846    0.0000 O   0  0
   24.6678  -31.5936    0.0000 C   0  0
   25.3757  -31.1781    0.0000 C   0  0
   26.7965  -28.7024    0.0000 C   0  0
   27.5132  -29.1141    0.0000 N   0  0
   28.2259  -28.6995    0.0000 C   0  0
   28.2232  -27.8732    0.0000 N   0  0
   27.5019  -27.4635    0.0000 C   0  0
   26.7921  -27.8805    0.0000 N   0  0
   25.3682  -27.8818    0.0000 Cl  0  0
   27.4958  -26.6381    0.0000 N   0  0
   28.9420  -29.1097    0.0000 S   0  0
   29.6554  -28.6947    0.0000 C   0  0
   30.3715  -29.1051    0.0000 C   0  0
   31.0849  -28.6901    0.0000 C   0  0
   31.8010  -29.1003    0.0000 C   0  0
   32.5144  -28.6853    0.0000 N   0  0
   31.8037  -29.9257    0.0000 O   0  0
  1  9  2  0
  4  2  1  0
  2  3  2  0
  3  1  1  0
  4  8  1  0
 13  5  1  0
  5  6  2  0
  6  7  1  0
  7  4  2  0
  8  9  1  0
  9 10  1  0
 10 11  1  0
 11 12  1  0
 12 13  1  0
 13  8  2  0
 14 15  2  0
 15 16  1  0
 16 17  2  0
 17 18  1  0
 18 19  2  0
 19 14  1  0
  2 14  1  0
  3 20  1  0
 18 21  1  0
 16 22  1  0
 22 23  1  0
 23 24  1  0
 24 25  1  0
 25 26  1  0
 26 27  1  0
 26 28  2  0
M  END