
  SciTegic09261414462D

 23 25  0  0  0  0            999 V2000
    6.4540  -19.8774    0.0000 N   0  0
    6.9303  -20.5345    0.0000 C   0  0
    6.4540  -21.1998    0.0000 N   0  0
    5.6768  -20.9472    0.0000 C   0  0
    4.9731  -21.3559    0.0000 N   0  0
    4.2612  -20.9472    0.0000 C   0  0
    4.2612  -20.1300    0.0000 N   0  0
    4.9731  -19.7214    0.0000 C   0  0
    5.6768  -20.1300    0.0000 C   0  0
    4.9731  -18.9041    0.0000 O   0  0
    7.7475  -20.5304    0.0000 S   0  0
    8.1562  -19.8266    0.0000 C   0  0
    8.9775  -19.8266    0.0000 C   0  0
    9.3862  -19.1147    0.0000 C   0  0
    8.9775  -18.4111    0.0000 C   0  0
   10.2076  -17.6992    0.0000 C   0  0
   10.2076  -19.1147    0.0000 C   0  0
    9.3862  -17.6992    0.0000 C   0  0
   10.6162  -18.4111    0.0000 C   0  0
    9.3862  -20.5303    0.0000 O   0  0
    3.5493  -21.3559    0.0000 N   0  0
   10.6170  -16.9920    0.0000 O   0  0
   11.4342  -16.9930    0.0000 C   0  0
  1  2  1  0
  2  3  2  0
  3  4  1  0
  4  5  1  0
  5  6  2  0
  6  7  1  0
  7  8  1  0
  8  9  1  0
  1  9  1  0
  4  9  2  0
  8 10  2  0
 12 13  1  0
 14 15  1  0
 14 17  2  0
 15 18  2  0
 16 18  1  0
 16 19  2  0
 17 19  1  0
 13 14  1  0
 13 20  2  0
 11 12  1  0
  2 11  1  0
  6 21  1  0
 16 22  1  0
 22 23  1  0
M  END