
          11280715122D 1   1.00000     0.00000     0

 33 36  0     0  0            999 V2000
    4.3667   -6.0667    0.0000 C   0  0  0  0  0  0           0  0  0
    3.6542   -5.6542    0.0000 C   0  0  0  0  0  0           0  0  0
   -1.1083   -4.9292    0.0000 C   0  0  0  0  0  0           0  0  0
   -1.1083   -5.7625    0.0000 C   0  0  0  0  0  0           0  0  0
   -0.3958   -4.5167    0.0000 N   0  0  3  0  0  0           0  0  0
   -0.3958   -6.1750    0.0000 N   0  0  3  0  0  0           0  0  0
    4.3667   -6.8917    0.0000 C   0  0  0  0  0  0           0  0  0
    0.9667   -7.1000    0.0000 N   0  0  3  0  0  0           0  0  0
    3.6542   -4.8292    0.0000 N   0  0  3  0  0  0           0  0  0
   -1.8250   -6.1750    0.0000 C   0  0  0  0  0  0           0  0  0
    5.0792   -7.3042    0.0000 N   0  0  0  0  0  0           0  0  0
   -1.8250   -4.5167    0.0000 C   0  0  0  0  0  0           0  0  0
   -0.4333   -3.6917    0.0000 C   0  0  0  0  0  0           0  0  0
    0.4042   -4.7375    0.0000 C   0  0  0  0  0  0           0  0  0
    2.9375   -6.0667    0.0000 O   0  0  0  0  0  0           0  0  0
    0.3500   -5.8042    0.0000 C   0  0  0  0  0  0           0  0  0
   -0.4500   -6.9917    0.0000 C   0  0  0  0  0  0           0  0  0
    0.3417   -3.3917    0.0000 C   0  0  0  0  0  0           0  0  0
    0.8542   -4.0417    0.0000 C   0  0  0  0  0  0           0  0  0
    3.6542   -7.3125    0.0000 N   0  0  0  0  0  0           0  0  0
    1.0292   -6.2750    0.0000 C   0  0  0  0  0  0           0  0  0
    0.2292   -7.4542    0.0000 C   0  0  0  0  0  0           0  0  0
   -2.5375   -5.7625    0.0000 C   0  0  0  0  0  0           0  0  0
   -2.5375   -4.9375    0.0000 C   0  0  0  0  0  0           0  0  0
    5.0792   -5.6542    0.0000 C   0  0  0  0  0  0           0  0  0
    1.6500   -7.5625    0.0000 C   0  0  0  0  0  0           0  0  0
    2.3542   -7.3500    0.0000 C   0  0  0  0  0  0           0  0  0
    5.7917   -6.8917    0.0000 C   0  0  0  0  0  0           0  0  0
    2.9417   -7.7292    0.0000 C   0  0  0  0  0  0           0  0  0
    4.3667   -4.4167    0.0000 C   0  0  0  0  0  0           0  0  0
    2.9375   -4.4167    0.0000 C   0  0  0  0  0  0           0  0  0
   -3.2500   -4.5250    0.0000 C   0  0  0  0  0  0           0  0  0
    5.7917   -6.0667    0.0000 C   0  0  0  0  0  0           0  0  0
  2  1  1  0     0  0
  3  4  1  0     0  0
  4  6  1  0     0  0
  5  3  1  0     0  0
  6 17  1  0     0  0
  7  1  2  0     0  0
  8 26  1  0     0  0
  9  2  1  0     0  0
 10  4  2  0     0  0
 11  7  1  0     0  0
 12  3  2  0     0  0
 13  5  1  0     0  0
 14  5  1  0     0  0
 15  2  2  0     0  0
 16 21  1  0     0  0
 17 22  1  0     0  0
 18 13  2  0     0  0
 19 14  2  0     0  0
 20  7  1  0     0  0
 21  8  1  0     0  0
 22  8  1  0     0  0
 23 10  1  0     0  0
 24 23  2  0     0  0
 25  1  1  0     0  0
 26 27  1  0     0  0
 27 29  1  0     0  0
 28 33  1  0     0  0
 29 20  1  0     0  0
 30  9  1  0     0  0
 31  9  1  0     0  0
 32 24  1  0     0  0
 33 25  2  0     0  0
 28 11  2  0     0  0
  6 16  1  0     0  0
 24 12  1  0     0  0
 18 19  1  0     0  0
M  END