
  CDK    9/16/09,9:51

 29 32  0  0  0  0  0  0  0  0999 V2000
    6.9870   -9.2348    0.0000 C   0  0  0  0  0  0  0  0  0  0  0  0
    6.5935   -9.9652    0.0000 N   0  0  0  0  0  0  0  0  0  0  0  0
    7.0268  -10.6672    0.0000 C   0  0  0  0  0  0  0  0  0  0  0  0
    7.8556  -10.6452    0.0000 C   0  0  0  0  0  0  0  0  0  0  0  0
    8.2491   -9.9148    0.0000 N   0  0  0  0  0  0  0  0  0  0  0  0
    7.8138   -9.2066    0.0000 C   0  0  0  0  0  0  0  0  0  0  0  0
    9.0737   -9.8914    0.0000 C   0  0  0  0  0  0  0  0  0  0  0  0
    9.5064  -10.5938    0.0000 C   0  0  0  0  0  0  0  0  0  0  0  0
    9.1893  -11.3554    0.0000 C   0  0  0  0  0  0  0  0  0  0  0  0
    9.8179  -11.8898    0.0000 S   0  0  0  0  0  0  0  0  0  0  0  0
   10.5205  -11.4571    0.0000 C   0  0  0  0  0  0  0  0  0  0  0  0
   10.3260  -10.6553    0.0000 C   0  0  0  0  0  0  0  0  0  0  0  0
   10.8598  -10.0263    0.0000 C   0  0  0  0  0  0  0  0  0  0  0  0
   11.6716  -10.1743    0.0000 O   0  0  0  0  0  0  0  0  0  0  0  0
   10.5821   -9.2495    0.0000 C   0  0  0  0  0  0  0  0  0  0  0  0
   11.1153   -8.6238    0.0000 C   0  0  0  0  0  0  0  0  0  0  0  0
   10.8382   -7.8475    0.0000 C   0  0  0  0  0  0  0  0  0  0  0  0
   10.0257   -7.6989    0.0000 C   0  0  0  0  0  0  0  0  0  0  0  0
    9.4910   -8.3329    0.0000 C   0  0  0  0  0  0  0  0  0  0  0  0
    9.7710   -9.1067    0.0000 C   0  0  0  0  0  0  0  0  0  0  0  0
    9.7469   -6.9224    0.0000 Cl  0  0  0  0  0  0  0  0  0  0  0  0
   11.2835  -11.7710    0.0000 N   0  0  0  0  0  0  0  0  0  0  0  0
    5.7688   -9.9895    0.0000 C   0  0  0  0  0  0  0  0  0  0  0  0
    5.3402   -9.2853    0.0000 C   0  0  0  0  0  0  0  0  0  0  0  0
    4.5163   -9.3092    0.0000 C   0  0  0  0  0  0  0  0  0  0  0  0
    4.1241  -10.0361    0.0000 C   0  0  0  0  0  0  0  0  0  0  0  0
    4.5620  -10.7404    0.0000 C   0  0  0  0  0  0  0  0  0  0  0  0
    5.3844  -10.7130    0.0000 C   0  0  0  0  0  0  0  0  0  0  0  0
    3.2995  -10.0615    0.0000 F   0  0  0  0  0  0  0  0  0  0  0  0
 13 14  2  0  0  0  0 
  5  7  1  0  0  0  0 
 13 15  1  0  0  0  0 
  1  2  1  0  0  0  0 
 15 16  2  0  0  0  0 
  7  8  1  0  0  0  0 
 16 17  1  0  0  0  0 
  8  9  2  0  0  0  0 
 17 18  2  0  0  0  0 
  1  6  1  0  0  0  0 
 18 19  1  0  0  0  0 
  2  3  1  0  0  0  0 
 19 20  2  0  0  0  0 
 20 15  1  0  0  0  0 
  3  4  1  0  0  0  0 
 18 21  1  0  0  0  0 
  4  5  1  0  0  0  0 
 11 22  1  0  0  0  0 
  9 10  1  0  0  0  0 
  2 23  1  0  0  0  0 
 10 11  1  0  0  0  0 
 23 24  2  0  0  0  0 
 11 12  2  0  0  0  0 
 24 25  1  0  0  0  0 
 12  8  1  0  0  0  0 
 25 26  2  0  0  0  0 
  5  6  1  0  0  0  0 
 26 27  1  0  0  0  0 
 12 13  1  0  0  0  0 
 27 28  2  0  0  0  0 
 28 23  1  0  0  0  0 
 26 29  1  0  0  0  0 
M  END