
  SciTegic09261414482D

 26 30  0  0  0  0            999 V2000
    5.3613  -10.3841    0.0000 C   0  0  2  0  0  0
    5.7575   -9.6825    0.0000 C   0  0  1  0  0  0
    4.5565  -10.3841    0.0000 C   0  0
    5.7575  -11.0692    0.0000 C   0  0  2  0  0  0
    4.1644  -11.0816    0.0000 C   0  0
    4.9279  -11.5439    0.0000 O   0  0
    5.4108   -9.0221    0.0000 C   0  0  1  0  0  0
    4.1520   -9.6949    0.0000 C   0  0
    5.3365   -8.1925    0.0000 N   0  0
    4.5441   -8.9891    0.0000 C   0  0
    4.9403   -9.6825    0.0000 C   0  0
    6.5540   -9.6825    0.0000 C   0  0
    6.5540  -11.0734    0.0000 C   0  0
    3.3554  -11.0857    0.0000 C   0  0
    4.9279   -8.7043    0.0000 C   0  0
    3.3472   -9.6949    0.0000 C   0  0
    6.9668  -10.3800    0.0000 C   0  0
    6.1537   -8.9767    0.0000 O   0  0
    6.9668  -11.7791    0.0000 O   0  0
    2.9468  -10.3882    0.0000 C   0  0
    6.5458   -7.4579    0.0000 C   0  0
    6.9337   -6.7521    0.0000 C   0  0
    5.7286   -7.4703    0.0000 C   0  0
    2.9468  -11.7915    0.0000 O   0  0
    5.7492  -11.9648    0.0000 H   0  0
    6.1042   -8.6218    0.0000 H   0  0
  2  1  1  0
  3  1  1  0
  4  1  1  0
  5  3  2  0
  6  4  1  0
  7  2  1  0
  8  3  1  0
  9 15  1  0
 10  8  1  0
  1 11  1  6
 12  2  1  0
 13  4  1  0
 14  5  1  0
 15 11  1  0
 16  8  2  0
 17 13  1  0
  2 18  1  6
 19 13  2  0
 20 16  1  0
 21 23  1  0
 22 21  2  0
 23  9  1  0
 24 14  1  0
  4 25  1  6
  7 26  1  1
  6  5  1  0
  7  9  1  0
 17 12  1  0
  7 10  1  0
 20 14  2  0
M  END