
          11280715182D 1   1.00000     0.00000     0

 17 18  0     0  0            999 V2000
    3.9000   -4.5000    0.0000 C   0  0  0  0  0  0           0  0  0
    1.8167   -3.3000    0.0000 C   0  0  0  0  0  0           0  0  0
    3.3792   -4.1917    0.0000 C   0  0  0  0  0  0           0  0  0
    2.3417   -3.6000    0.0000 C   0  0  0  0  0  0           0  0  0
    4.4167   -4.1917    0.0000 C   0  0  0  0  0  0           0  0  0
    3.9000   -5.1000    0.0000 C   0  0  0  0  0  0           0  0  0
    4.4167   -5.4000    0.0000 C   0  0  0  0  0  0           0  0  0
    4.9375   -4.4917    0.0000 C   0  0  0  0  0  0           0  0  0
    4.9375   -5.1000    0.0000 C   0  0  0  0  0  0           0  0  0
    1.8167   -2.7000    0.0000 O   0  0  0  0  0  0           0  0  0
    2.3417   -4.1917    0.0000 C   0  0  0  0  0  0           0  0  0
    2.8667   -4.5000    0.0000 C   0  0  0  0  0  0           0  0  0
    2.8625   -3.3000    0.0000 C   0  0  0  0  0  0           0  0  0
    3.3792   -3.5917    0.0000 C   0  0  0  0  0  0           0  0  0
    1.3042   -3.6000    0.0000 O   0  0  0  0  0  0           0  0  0
    5.4542   -4.1917    0.0000 Cl  0  0  0  0  0  0           0  0  0
    4.4125   -6.0000    0.0000 Cl  0  0  0  0  0  0           0  0  0
  2  4  1  0     0  0
  3  1  1  0     0  0
  4 13  2  0     0  0
  5  1  1  0     0  0
  6  1  2  0     0  0
  7  6  1  0     0  0
  8  5  2  0     0  0
  9  7  2  0     0  0
 10  2  2  0     0  0
 11 12  2  0     0  0
 12  3  1  0     0  0
 13 14  1  0     0  0
 14  3  2  0     0  0
 15  2  1  0     0  0
 16  8  1  0     0  0
 17  7  1  0     0  0
  9  8  1  0     0  0
  4 11  1  0     0  0
M  END