
          11280714522D 1   1.00000     0.00000     0

 58 63  0     1  0            999 V2000
    6.6917   -4.0792    0.0000 N   0  0  0  0  0  0           0  0  0
    7.0500   -3.3250    0.0000 C   0  0  2  0  0  0           0  0  0
    5.8750   -2.3917    0.0000 N   0  0  3  0  0  0           0  0  0
    6.6875   -2.5667    0.0000 C   0  0  0  0  0  0           0  0  0
    5.8792   -4.2667    0.0000 C   0  0  0  0  0  0           0  0  0
    5.2250   -3.7417    0.0000 C   0  0  0  0  0  0           0  0  0
    7.8750   -3.3167    0.0000 N   0  0  0  0  0  0           0  0  0
    5.2250   -2.9167    0.0000 C   0  0  0  0  0  0           0  0  0
    8.2875   -4.0292    0.0000 C   0  0  0  0  0  0           0  0  0
    7.4667   -8.3167    0.0000 C   0  0  0  0  0  0           0  0  0
    9.1125   -4.0292    0.0000 N   0  0  0  0  0  0           0  0  0
   -1.5333  -12.1417    0.0000 N   0  0  3  0  0  0           0  0  0
    7.2000   -1.9250    0.0000 O   0  0  0  0  0  0           0  0  0
    5.4042  -10.4667    0.0000 C   0  0  0  0  0  0           0  0  0
    5.6917   -5.0667    0.0000 C   0  0  0  0  0  0           0  0  0
    7.8792   -4.7500    0.0000 O   0  0  0  0  0  0           0  0  0
    6.6417   -8.3167    0.0000 O   0  0  0  0  0  0           0  0  0
    9.5292   -4.7417    0.0000 C   0  0  0  0  0  0           0  0  0
    5.6000  -11.2667    0.0000 O   0  0  0  0  0  0           0  0  0
   -0.9333  -11.5792    0.0000 C   0  0  0  0  0  0           0  0  0
    7.8792   -9.0292    0.0000 N   0  0  0  0  0  0           0  0  0
   -0.1458  -11.8167    0.0000 C   0  0  0  0  0  0           0  0  0
    4.6167  -10.2417    0.0000 N   0  0  0  0  0  0           0  0  0
    5.6875   -1.5875    0.0000 C   0  0  0  0  0  0           0  0  0
    7.8792   -7.6042    0.0000 O   0  0  0  0  0  0           0  0  0
    9.1167   -5.4542    0.0000 C   0  0  0  0  0  0           0  0  0
    0.4542  -11.2500    0.0000 C   0  0  0  0  0  0           0  0  0
    4.5042   -4.1542    0.0000 C   0  0  0  0  0  0           0  0  0
    1.2417  -11.4792    0.0000 C   0  0  0  0  0  0           0  0  0
    4.5042   -2.5042    0.0000 C   0  0  0  0  0  0           0  0  0
    9.5292   -6.1667    0.0000 C   0  0  0  0  0  0           0  0  0
    3.2292  -10.5792    0.0000 C   0  0  0  0  0  0           0  0  0
    8.2917   -6.8875    0.0000 C   0  0  0  0  0  0           0  0  0
    1.8375  -10.9167    0.0000 O   0  0  0  0  0  0           0  0  0
   -1.3375  -12.9500    0.0000 C   0  0  0  0  0  0           0  0  0
   -2.3208  -11.9042    0.0000 C   0  0  0  0  0  0           0  0  0
   10.7667   -5.4500    0.0000 C   0  0  0  0  0  0           0  0  0
    0.8417  -12.8542    0.0000 C   0  0  0  0  0  0           0  0  0
    6.2292  -10.4667    0.0000 C   0  0  0  0  0  0           0  0  0
    4.0167  -10.8125    0.0000 C   0  0  0  0  0  0           0  0  0
   10.3500   -4.7417    0.0000 C   0  0  0  0  0  0           0  0  0
    0.0500  -12.6167    0.0000 C   0  0  0  0  0  0           0  0  0
    4.9042   -5.3125    0.0000 C   0  0  0  0  0  0           0  0  0
    6.3000   -5.6250    0.0000 C   0  0  0  0  0  0           0  0  0
    2.6292  -11.1417    0.0000 C   0  0  0  0  0  0           0  0  0
    9.1167   -6.8875    0.0000 C   0  0  0  0  0  0           0  0  0
    7.4667   -9.7500    0.0000 C   0  0  0  0  0  0           0  0  0
    1.4417  -12.2792    0.0000 C   0  0  0  0  0  0           0  0  0
   10.3542   -6.1667    0.0000 C   0  0  0  0  0  0           0  0  0
    6.6417   -9.7500    0.0000 C   0  0  0  0  0  0           0  0  0
    3.7917   -3.7417    0.0000 C   0  0  0  0  0  0           0  0  0
    3.7917   -2.9167    0.0000 C   0  0  0  0  0  0           0  0  0
   -1.9333  -13.5167    0.0000 C   0  0  0  0  0  0           0  0  0
   -2.9208  -12.4792    0.0000 C   0  0  0  0  0  0           0  0  0
    6.1167   -6.4250    0.0000 C   0  0  0  0  0  0           0  0  0
    4.7250   -6.1125    0.0000 C   0  0  0  0  0  0           0  0  0
   -2.7250  -13.2792    0.0000 C   0  0  0  0  0  0           0  0  0
    5.3292   -6.6750    0.0000 C   0  0  0  0  0  0           0  0  0
  2  1  1  0     0  0
  3  4  1  0     0  0
  4  2  1  0     0  0
  5  1  2  0     0  0
  6  5  1  0     0  0
  2  7  1  6     0  0
  8  6  1  0     0  0
  9  7  1  0     0  0
 10 25  1  0     0  0
 11  9  1  0     0  0
 12 20  1  0     0  0
 13  4  2  0     0  0
 14 39  1  0     0  0
 15  5  1  0     0  0
 16  9  2  0     0  0
 17 10  2  0     0  0
 18 11  1  0     0  0
 19 14  2  0     0  0
 20 22  1  0     0  0
 21 10  1  0     0  0
 22 27  2  0     0  0
 23 14  1  0     0  0
 24  3  1  0     0  0
 25 33  1  0     0  0
 26 18  2  0     0  0
 27 29  1  0     0  0
 28  6  2  0     0  0
 29 34  1  0     0  0
 30  8  2  0     0  0
 31 26  1  0     0  0
 32 40  1  0     0  0
 33 46  1  0     0  0
 34 45  1  0     0  0
 35 12  1  0     0  0
 36 12  1  0     0  0
 37 41  2  0     0  0
 38 48  1  0     0  0
 39 50  1  0     0  0
 40 23  1  0     0  0
 41 18  1  0     0  0
 42 38  2  0     0  0
 43 15  2  0     0  0
 44 15  1  0     0  0
 45 32  1  0     0  0
 46 31  1  0     0  0
 47 21  1  0     0  0
 48 29  2  0     0  0
 49 37  1  0     0  0
 50 47  1  0     0  0
 51 28  1  0     0  0
 52 51  2  0     0  0
 53 35  1  0     0  0
 54 36  1  0     0  0
 55 44  2  0     0  0
 56 43  1  0     0  0
 57 54  1  0     0  0
 58 55  1  0     0  0
  8  3  1  0     0  0
 56 58  2  0     0  0
 30 52  1  0     0  0
 31 49  2  0     0  0
 42 22  1  0     0  0
 53 57  1  0     0  0
M  END