
          11280715352D 1   1.00000     0.00000     0

 37 40  0     1  0            999 V2000
    3.6417   -5.6000    0.0000 N   0  0  3  0  0  0           0  0  0
    4.6917   -5.0750    0.0000 C   0  0  0  0  0  0           0  0  0
    4.2000   -4.7500    0.0000 C   0  0  0  0  0  0           0  0  0
    4.6542   -5.6625    0.0000 C   0  0  0  0  0  0           0  0  0
    3.6792   -5.0167    0.0000 C   0  0  0  0  0  0           0  0  0
    4.7500   -3.9000    0.0000 C   0  0  2  0  0  0           0  0  0
    4.2292   -4.1667    0.0000 C   0  0  0  0  0  0           0  0  0
    5.2417   -4.2250    0.0000 C   0  0  2  0  0  0           0  0  0
    5.7667   -3.9625    0.0000 N   0  0  3  0  0  0           0  0  0
    5.2125   -4.8125    0.0000 C   0  0  0  0  0  0           0  0  0
    6.8917   -2.2625    0.0000 C   0  0  3  0  0  0           0  0  0
    6.3667   -2.5250    0.0000 C   0  0  0  0  0  0           0  0  0
    7.4792   -2.3000    0.0000 C   0  0  0  0  0  0           0  0  0
    7.2167   -1.7750    0.0000 C   0  0  0  0  0  0           0  0  0
    5.8042   -3.3750    0.0000 C   0  0  0  0  0  0           0  0  0
    4.7792   -3.3125    0.0000 C   0  0  0  0  0  0           0  0  0
    8.6917   -4.8125    0.0000 C   0  0  0  0  0  0           0  0  0
    7.4875   -4.8000    0.0000 C   0  0  0  0  0  0           0  0  0
    8.3917   -4.2875    0.0000 C   0  0  0  0  0  0           0  0  0
    7.7917   -4.2875    0.0000 C   0  0  0  0  0  0           0  0  0
    5.3042   -3.0500    0.0000 C   0  0  1  0  0  0           0  0  0
    5.8750   -2.2000    0.0000 O   0  0  0  0  0  0           0  0  0
    3.2000   -6.0000    0.0000 C   0  0  3  0  0  0           0  0  0
    6.3292   -3.1125    0.0000 O   0  0  0  0  0  0           0  0  0
    9.2917   -4.8125    0.0000 O   0  0  0  0  0  0           0  0  0
    7.7917   -5.3250    0.0000 O   0  0  0  0  0  0           0  0  0
    5.3417   -2.4625    0.0000 C   0  0  0  0  0  0           0  0  0
    3.1875   -4.7125    0.0000 C   0  0  0  0  0  0           0  0  0
    3.7375   -3.8500    0.0000 C   0  0  0  0  0  0           0  0  0
    6.2625   -4.2875    0.0000 C   0  0  0  0  0  0           0  0  0
    8.3917   -5.3250    0.0000 O   0  0  0  0  0  0           0  0  0
    6.8875   -4.8000    0.0000 O   0  0  0  0  0  0           0  0  0
    3.2167   -4.1250    0.0000 C   0  0  0  0  0  0           0  0  0
    2.6292   -5.8125    0.0000 C   0  0  0  0  0  0           0  0  0
    3.3167   -6.5875    0.0000 C   0  0  0  0  0  0           0  0  0
    4.0792   -3.3375    0.0000 H   0  0  0  0  0  0           0  0  0
    5.7375   -4.5375    0.0000 H   0  0  0  0  0  0           0  0  0
  2  4  2  0     0  0
  3  5  1  0     0  0
  4  1  1  0     0  0
  5  1  1  0     0  0
  6  7  1  0     0  0
  7  3  2  0     0  0
  8 10  1  0     0  0
  9  8  1  0     0  0
 10  2  1  0     0  0
 11 12  1  0     0  0
 12 22  1  0     0  0
 13 11  1  0     0  0
 14 11  1  0     0  0
 15  9  1  0     0  0
 16  6  1  0     0  0
 18 20  1  0     0  0
 19 17  1  0     0  0
 20 19  2  0     0  0
 21 16  1  0     0  0
 22 27  1  0     0  0
 23  1  1  0     0  0
 24 12  2  0     0  0
 25 17  2  0     0  0
 26 18  2  0     0  0
 21 27  1  1     0  0
 28  5  2  0     0  0
 29  7  1  0     0  0
 30  9  1  0     0  0
 31 17  1  0     0  0
 32 18  1  0     0  0
 33 28  1  0     0  0
 34 23  1  0     0  0
 35 23  1  0     0  0
  6 36  1  6     0  0
  8 37  1  1     0  0
  3  2  1  0     0  0
 33 29  2  0     0  0
  8  6  1  0     0  0
 15 21  1  0     0  0
 14 13  1  0     0  0
M  END