
  SciTegic11201309402D

 66 68  0  0  1  0            999 V2000
    4.2542    0.1083    0.0000 N   0  0
    5.6750   -0.7125    0.0000 C   0  0
    1.4167   -1.1625    0.0000 C   0  0
    6.0000   -3.8000    0.0000 N   0  0
    6.1250   -1.4000    0.0000 N   0  0
    1.9417   -0.5125    0.0000 N   0  0
    3.4292    0.1500    0.0000 C   0  0
    6.2917   -3.0250    0.0000 C   0  0
    5.4750   -4.4417    0.0000 C   0  0  1  0  0  0
    5.0292   -0.1917    0.0000 C   0  0  2  0  0  0
    1.0792   -2.7542    0.0000 N   0  0
    6.3417   -2.2000    0.0000 C   0  0  1  0  0  0
    1.1250   -1.9292    0.0000 C   0  0  2  0  0  0
    2.6375   -0.0625    0.0000 C   0  0  1  0  0  0
    1.2917   -3.5500    0.0000 C   0  0
    7.1625   -2.1125    0.0000 C   0  0
    6.0292   -5.0542    0.0000 C   0  0
    7.1000   -8.7917    0.0000 C   0  0
    1.7417   -4.2500    0.0000 C   0  0
    3.9875   -5.1000    0.0000 S   0  0
    3.1875   -5.1125    0.0000 S   0  0
    9.5750   -5.9417    0.0000 C   0  0
    7.8417   -2.6042    0.0000 C   0  0
    2.3833   -4.7625    0.0000 C   0  0
    7.5125   -8.0792    0.0000 N   0  0
    0.7042   -0.7417    0.0000 O   0  0
    6.2917   -0.1542    0.0000 O   0  0
    3.2792    0.7625    0.0000 O   0  0
    7.1042   -3.2000    0.0000 O   0  0
    4.7875   -4.8917    0.0000 C   0  0
    2.2917    0.6875    0.0000 C   0  0
    0.5375   -3.8875    0.0000 O   0  0
    5.7750   -5.8417    0.0000 O   0  0
    9.9792   -5.2250    0.0000 O   0  0
    7.6542   -3.2292    0.0000 O   0  0
    6.8417   -4.8875    0.0000 N   0  0
    8.7542   -5.9417    0.0000 N   0  0
    9.9875   -6.6542    0.0000 C   0  0
    7.5125   -9.5125    0.0000 N   0  0
    6.2750   -8.7917    0.0000 N   0  0
    5.4417    0.5250    0.0000 C   0  0
    0.3167   -1.7500    0.0000 C   0  0  2  0  0  0
    8.6667   -2.5167    0.0000 N   0  0
   10.8042   -6.6542    0.0000 N   0  0
    2.7792    1.3625    0.0000 C   0  0
    8.3375   -8.0792    0.0000 C   0  0
    2.8542   -5.3875    0.0000 C   0  0
    1.6167   -4.6667    0.0000 C   0  0
    7.3917   -5.5000    0.0000 C   0  0
    8.2000   -5.3250    0.0000 C   0  0
    9.5750   -7.3667    0.0000 C   0  0
    0.0625   -0.9667    0.0000 C   0  0
    5.0292    1.2458    0.0000 C   0  0
    6.2750    0.5250    0.0000 C   0  0
   -0.2375   -2.3750    0.0000 C   0  0
    2.4417    2.1125    0.0000 C   0  0
    3.6042    1.2750    0.0000 C   0  0
    8.7500   -7.3667    0.0000 C   0  0
   -0.7458   -0.8000    0.0000 C   0  0
    2.4417   -6.1000    0.0000 C   0  0
    1.2042   -5.3875    0.0000 C   0  0
    2.9292    2.7833    0.0000 C   0  0
    4.0917    1.9542    0.0000 C   0  0
    3.7542    2.6958    0.0000 C   0  0
    1.6167   -6.1000    0.0000 C   0  0
    0.3281   -2.5333    0.0000 H   0  0
  2 10  1  0
  3  6  1  0
  4  8  1  0
  5  2  1  0
  6 14  1  0
  7  1  1  0
  8 12  1  0
  9  4  1  0
 10  1  1  0
 11 13  1  0
 12  5  1  0
 13  3  1  0
 14  7  1  0
 15 11  1  0
 12 16  1  6
  9 17  1  1
 18 25  2  0
 19 15  1  0
 20 30  1  0
 21 20  1  0
 22 37  1  0
 23 16  1  0
 24 19  1  0
 25 46  1  0
 26  3  2  0
 27  2  2  0
 28  7  2  0
 29  8  2  0
  9 30  1  0
 14 31  1  6
 32 15  2  0
 33 17  2  0
 34 22  2  0
 35 23  2  0
 36 17  1  0
 37 50  1  0
 38 22  1  0
 39 18  1  0
 40 18  1  0
 10 41  1  1
 13 42  1  0
 43 23  1  0
 44 38  1  0
 45 31  1  0
 46 58  1  0
 47 24  1  0
 48 24  1  0
 49 36  1  0
 50 49  1  0
 51 38  1  0
 52 42  1  0
 53 41  1  0
 54 41  1  0
 42 55  1  1
 56 45  2  0
 57 45  1  0
 58 51  1  0
 59 52  1  0
 60 47  1  0
 61 48  1  0
 62 56  1  0
 63 57  2  0
 64 63  1  0
 65 61  1  0
 62 64  2  0
 24 21  1  0
 60 65  1  0
 13 66  1  1
M  END