
  Mrv0541 05211314572D          

 35 38  0  0  0  0            999 V2000
   -0.1057   -0.4492    0.0000 C   0  0  0  0  0  0  0  0  0  0  0  0
    0.6088   -0.0367    0.0000 C   0  0  0  0  0  0  0  0  0  0  0  0
    1.3233   -0.4492    0.0000 C   0  0  0  0  0  0  0  0  0  0  0  0
    2.0377   -0.0367    0.0000 N   0  0  0  0  0  0  0  0  0  0  0  0
    1.3233   -1.2742    0.0000 O   0  0  0  0  0  0  0  0  0  0  0  0
    2.7522   -0.4492    0.0000 C   0  0  0  0  0  0  0  0  0  0  0  0
    3.4667   -0.0367    0.0000 C   0  0  0  0  0  0  0  0  0  0  0  0
    3.4667    0.7883    0.0000 N   0  0  0  0  0  0  0  0  0  0  0  0
    2.7522    1.2008    0.0000 C   0  0  0  0  0  0  0  0  0  0  0  0
    2.0377    0.7883    0.0000 C   0  0  0  0  0  0  0  0  0  0  0  0
    4.1812    1.2008    0.0000 C   0  0  0  0  0  0  0  0  0  0  0  0
    4.1812    2.0258    0.0000 C   0  0  0  0  0  0  0  0  0  0  0  0
    4.8956    2.4383    0.0000 C   0  0  0  0  0  0  0  0  0  0  0  0
    5.6101    2.0258    0.0000 C   0  0  0  0  0  0  0  0  0  0  0  0
    5.6101    1.2008    0.0000 C   0  0  0  0  0  0  0  0  0  0  0  0
    4.8956    0.7883    0.0000 C   0  0  0  0  0  0  0  0  0  0  0  0
   -0.8201   -0.0367    0.0000 N   0  0  0  0  0  0  0  0  0  0  0  0
   -0.8201    0.7883    0.0000 C   0  0  0  0  0  0  0  0  0  0  0  0
   -1.5346   -0.4492    0.0000 C   0  0  0  0  0  0  0  0  0  0  0  0
   -2.2491   -0.0367    0.0000 C   0  0  0  0  0  0  0  0  0  0  0  0
   -2.9636   -0.4492    0.0000 C   0  0  0  0  0  0  0  0  0  0  0  0
   -3.8568   -1.4413    0.0000 C   0  0  0  0  0  0  0  0  0  0  0  0
   -3.0498   -1.2697    0.0000 C   0  0  0  0  0  0  0  0  0  0  0  0
   -2.4978   -1.8828    0.0000 C   0  0  0  0  0  0  0  0  0  0  0  0
   -2.7527   -2.6674    0.0000 C   0  0  0  0  0  0  0  0  0  0  0  0
   -3.5597   -2.8390    0.0000 C   0  0  0  0  0  0  0  0  0  0  0  0
   -4.1117   -2.2259    0.0000 C   0  0  0  0  0  0  0  0  0  0  0  0
   -3.7172   -0.1137    0.0000 C   0  0  0  0  0  0  0  0  0  0  0  0
   -4.2693   -0.7268    0.0000 C   0  0  0  0  0  0  0  0  0  0  0  0
   -5.0762   -0.5553    0.0000 C   0  0  0  0  0  0  0  0  0  0  0  0
   -5.3312    0.2294    0.0000 C   0  0  0  0  0  0  0  0  0  0  0  0
   -4.7791    0.8425    0.0000 C   0  0  0  0  0  0  0  0  0  0  0  0
   -3.9722    0.6709    0.0000 C   0  0  0  0  0  0  0  0  0  0  0  0
    6.3246    2.4383    0.0000 F   0  0  0  0  0  0  0  0  0  0  0  0
    8.5638    0.0000    0.0000 Cl  0  0  0  0  0  0  0  0  0  0  0  0
  4 10  1  0  0  0  0
  1 17  1  0  0  0  0
  6  7  1  0  0  0  0
 17 18  1  0  0  0  0
  7  8  1  0  0  0  0
 17 19  1  0  0  0  0
  8  9  1  0  0  0  0
 19 20  1  0  0  0  0
  9 10  1  0  0  0  0
 20 21  1  0  0  0  0
 21 23  1  0  0  0  0
 22 29  1  0  0  0  0
 28 21  1  0  0  0  0
 22 23  2  0  0  0  0
  4  6  1  0  0  0  0
  8 11  1  0  0  0  0
  2  3  1  0  0  0  0
 11 12  2  0  0  0  0
  1  2  1  0  0  0  0
 12 13  1  0  0  0  0
 22 27  1  0  0  0  0
 23 24  1  0  0  0  0
 24 25  2  0  0  0  0
 25 26  1  0  0  0  0
 26 27  2  0  0  0  0
 28 29  2  0  0  0  0
  3  4  1  0  0  0  0
 13 14  2  0  0  0  0
 14 15  1  0  0  0  0
  3  5  2  0  0  0  0
 15 16  2  0  0  0  0
 28 33  1  0  0  0  0
 29 30  1  0  0  0  0
 30 31  2  0  0  0  0
 31 32  1  0  0  0  0
 32 33  2  0  0  0  0
 16 11  1  0  0  0  0
 14 34  1  0  0  0  0
M  END