
  SciTegic06051313522D

 31 34  0  0  0  0            999 V2000
   22.5763   -8.2944    0.0000 S   0  0
   23.2897   -8.7088    0.0000 N   0  0
   23.2880   -9.5329    0.0000 C   0  0
   24.0047   -8.2991    0.0000 C   0  0
   24.7181   -8.7135    0.0000 C   0  0
   25.4332   -8.3038    0.0000 C   0  0
   25.4370   -7.4761    0.0000 C   0  0
   24.7237   -7.0617    0.0000 C   0  0
   24.0065   -7.4750    0.0000 N   0  0
   24.7164   -9.5376    0.0000 C   0  0
   24.0080   -9.9591    0.0000 N   0  0
   24.7065  -12.0341    0.0000 C   0  0
   24.7171  -11.2064    0.0000 C   0  0
   24.0071  -10.7862    0.0000 C   0  0
   23.2866  -11.1936    0.0000 C   0  0
   23.2782  -12.0177    0.0000 C   0  0
   23.9881  -12.4379    0.0000 N   0  0
   25.4873  -12.2961    0.0000 N   0  0
   25.5021  -10.9578    0.0000 C   0  0
   25.9801  -11.6336    0.0000 C   0  0
   21.8607   -8.7049    0.0000 C   0  0
   21.9876   -7.7042    0.0000 O   0  0
   22.9835   -7.5750    0.0000 O   0  0
   22.5712  -10.7757    0.0000 C   0  0
   21.8607  -10.3564    0.0000 N   0  0
   26.8023  -11.6430    0.0000 C   0  0
   27.2056  -12.3639    0.0000 C   0  0
   28.0298  -12.3742    0.0000 C   0  0
   28.4517  -11.6642    0.0000 C   0  0
   28.0433  -10.9423    0.0000 C   0  0
   27.2205  -10.9357    0.0000 C   0  0
  1  2  1  0
  2  3  1  0
  4  5  1  0
  5  6  2  0
  6  7  1  0
  7  8  2  0
  8  9  1  0
  4  9  2  0
 12 13  1  0
 13 14  2  0
 14 15  1  0
 15 16  2  0
 16 17  1  0
 12 17  2  0
 19 20  2  0
 18 20  1  0
 12 18  1  0
 13 19  1  0
 11 14  1  0
 10 11  1  0
  5 10  1  0
  2  4  1  0
  1 21  1  0
  1 22  2  0
  1 23  2  0
 24 25  3  0
 15 24  1  0
 26 27  1  0
 27 28  1  0
 28 29  1  0
 29 30  1  0
 30 31  1  0
 31 26  1  0
 20 26  1  0
M  END