
  SciTegic05171617262D

 67 72  0  0  1  0            999 V2000
    2.3383   -1.3500    0.0000 O   0  0
    1.2990   -0.7500    0.0000 C   0  0
    1.2990    0.7500    0.0000 C   0  0
    0.0000    1.5000    0.0000 C   0  0
   -1.2990    0.7500    0.0000 C   0  0
   -1.2990   -0.7500    0.0000 C   0  0
   -2.3383   -1.3500    0.0000 O   0  0
    0.0000   -1.5000    0.0000 C   0  0
    0.0000   -2.7000    0.0000 O   0  0
   -0.0031    3.0008    0.0000 C   0  0
    1.0351    3.6026    0.0000 O   0  0
   -1.3039    3.7494    0.0000 O   0  0
   -1.3070    5.2502    0.0000 C   0  0
   -2.6078    5.9988    0.0000 C   0  0  1  0  0  0
   -3.9044    5.2443    0.0000 O   0  0
   -5.2060    5.9898    0.0000 C   0  0
   -6.5016    5.2322    0.0000 O   0  0
   -6.4943    3.7314    0.0000 C   0  0
   -5.4519    3.1368    0.0000 O   0  0
   -7.7899    2.9738    0.0000 C   0  0
   -7.7847    1.4738    0.0000 C   0  0
   -9.0812    0.7193    0.0000 C   0  0
   -9.0770   -0.4807    0.0000 O   0  0
  -10.3828    1.4648    0.0000 C   0  0
  -11.4199    0.8612    0.0000 O   0  0
  -10.3880    2.9648    0.0000 C   0  0
  -11.4293    3.5611    0.0000 O   0  0
   -9.0916    3.7193    0.0000 C   0  0
   -5.2112    7.4898    0.0000 C   0  0  2  0  0  0
   -6.5151    8.2330    0.0000 O   0  0
   -7.8111    7.4763    0.0000 C   0  0
   -7.8049    6.2763    0.0000 O   0  0
   -9.1150    8.2195    0.0000 C   0  0
  -10.4115    7.4650    0.0000 C   0  0
  -11.7132    8.2105    0.0000 C   0  0
  -12.7503    7.6069    0.0000 O   0  0
  -11.7184    9.7105    0.0000 C   0  0
  -12.7597   10.3069    0.0000 O   0  0
  -10.4220   10.4650    0.0000 C   0  0
  -10.4261   11.6650    0.0000 O   0  0
   -9.1203    9.7196    0.0000 C   0  0
   -3.9148    8.2443    0.0000 C   0  0  1  0  0  0
   -3.9230    9.7451    0.0000 O   0  0
   -5.2264   10.4891    0.0000 C   0  0
   -6.2625    9.8837    0.0000 O   0  0
   -5.2347   11.9899    0.0000 C   0  0
   -6.5364   12.7355    0.0000 C   0  0
   -6.5416   14.2355    0.0000 C   0  0
   -7.5829   14.8319    0.0000 O   0  0
   -5.2452   14.9900    0.0000 C   0  0
   -5.2493   16.1900    0.0000 O   0  0
   -3.9435   14.2446    0.0000 C   0  0
   -2.9064   14.8482    0.0000 O   0  0
   -3.9383   12.7446    0.0000 C   0  0
   -2.6131    7.4988    0.0000 C   0  0  1  0  0  0
   -1.3176    8.2564    0.0000 O   0  0
   -1.3249    9.7572    0.0000 C   0  0
   -2.3673   10.3518    0.0000 O   0  0
   -0.0294   10.5148    0.0000 C   0  0
   -0.0346   12.0149    0.0000 C   0  0
    1.2618   12.7694    0.0000 C   0  0
    1.2576   13.9694    0.0000 O   0  0
    2.5635   12.0240    0.0000 C   0  0
    3.6006   12.6277    0.0000 O   0  0
    2.5688   10.5240    0.0000 C   0  0
    3.6101    9.9277    0.0000 O   0  0
    1.2724    9.7694    0.0000 C   0  0
  1  2  1  0
  2  3  2  0
  3  4  1  0
  4  5  2  0
  5  6  1  0
  6  7  1  0
  6  8  2  0
  2  8  1  0
  8  9  1  0
  4 10  1  0
 10 11  2  0
 10 12  1  0
 12 13  1  0
 14 13  1  1
 14 15  1  0
 15 16  1  0
 16 17  1  0
 17 18  1  0
 18 19  2  0
 18 20  1  0
 20 21  2  0
 21 22  1  0
 22 23  1  0
 22 24  2  0
 24 25  1  0
 24 26  1  0
 26 27  1  0
 26 28  2  0
 20 28  1  0
 16 29  1  0
 29 30  1  6
 30 31  1  0
 31 32  2  0
 31 33  1  0
 33 34  2  0
 34 35  1  0
 35 36  1  0
 35 37  2  0
 37 38  1  0
 37 39  1  0
 39 40  1  0
 39 41  2  0
 33 41  1  0
 29 42  1  0
 42 43  1  1
 43 44  1  0
 44 45  2  0
 44 46  1  0
 46 47  2  0
 47 48  1  0
 48 49  1  0
 48 50  2  0
 50 51  1  0
 50 52  1  0
 52 53  1  0
 52 54  2  0
 46 54  1  0
 42 55  1  0
 14 55  1  0
 55 56  1  1
 56 57  1  0
 57 58  2  0
 57 59  1  0
 59 60  2  0
 60 61  1  0
 61 62  1  0
 61 63  2  0
 63 64  1  0
 63 65  1  0
 65 66  1  0
 65 67  2  0
 59 67  1  0
M  END