
  SciTegic02011310462D

 24 26  0  0  0  0            999 V2000
   18.3125   -7.5116    0.0000 O   0  0
   19.1297   -7.5157    0.0000 S   0  0
   18.7247   -6.8059    0.0000 O   0  0
   19.8382   -8.7414    0.0000 C   0  0
   19.8370   -9.5610    0.0000 C   0  0
   20.5451   -9.9699    0.0000 C   0  0
   20.5433   -8.3326    0.0000 C   0  0
   21.2519   -8.7378    0.0000 C   0  0
   21.2553   -9.5630    0.0000 C   0  0
   21.9677   -9.9704    0.0000 N   0  0
   22.6812   -9.5572    0.0000 C   0  0
   22.6778   -8.7320    0.0000 N   0  0
   21.9609   -8.3200    0.0000 C   0  0
   23.3900   -9.9638    0.0000 O   0  0
   23.3843   -8.3212    0.0000 C   0  0
   19.1304   -8.3330    0.0000 N   0  0
   19.8378   -7.1070    0.0000 C   0  0
   20.5404   -7.5184    0.0000 C   0  0
   21.2476   -7.1103    0.0000 C   0  0
   21.2478   -6.2922    0.0000 C   0  0
   20.5350   -5.8839    0.0000 C   0  0
   19.8308   -6.2944    0.0000 C   0  0
   19.1205   -5.8903    0.0000 O   0  0
   19.1154   -5.0731    0.0000 C   0  0
  2  1  2  0
  3  2  2  0
  4  5  2  0
  5  6  1  0
  6  9  2  0
  8  7  2  0
  7  4  1  0
  8  9  1  0
  8 13  1  0
  9 10  1  0
 10 11  1  0
 11 12  1  0
 12 13  1  0
 11 14  2  0
 12 15  1  0
  4 16  1  0
 16  2  1  0
  2 17  1  0
 17 18  2  0
 18 19  1  0
 19 20  2  0
 20 21  1  0
 21 22  2  0
 22 17  1  0
 22 23  1  0
 23 24  1  0
M  END