
  SciTegic03161210572D

 37 38  0  0  0  0            999 V2000
   22.8458  -15.1125    0.0000 F   0  0
   23.2625  -15.8292    0.0000 C   0  0
   23.6748  -15.1100    0.0000 F   0  0
   22.9542  -16.9542    0.0000 F   0  0
   22.5458  -16.2417    0.0000 C   0  0
   22.1330  -16.9515    0.0000 F   0  0
   21.4167  -15.1125    0.0000 F   0  0
   21.8333  -15.8292    0.0000 C   0  0
   22.2457  -15.1100    0.0000 F   0  0
   21.5250  -16.9542    0.0000 F   0  0
   21.1167  -16.2417    0.0000 C   0  0
   20.7038  -16.9515    0.0000 F   0  0
   19.9875  -15.1125    0.0000 F   0  0
   20.4042  -15.8292    0.0000 C   0  0
   20.8165  -15.1100    0.0000 F   0  0
   20.0958  -16.9542    0.0000 F   0  0
   19.6875  -16.2417    0.0000 C   0  0
   19.2746  -16.9515    0.0000 F   0  0
   18.2625  -16.2458    0.0000 N   0  0
   18.9770  -15.8333    0.0000 C   0  0
   18.9770  -15.0083    0.0000 O   0  0
   23.9783  -16.2458    0.0000 C   0  0
   24.6927  -15.8333    0.0000 N   0  0
   23.9783  -17.0708    0.0000 O   0  0
   25.4072  -16.2458    0.0000 O   0  0
   17.5480  -15.8333    0.0000 C   0  0
   17.5530  -15.0073    0.0000 C   0  0
   16.8394  -14.5948    0.0000 C   0  0
   16.1239  -15.0074    0.0000 C   0  0
   16.1266  -15.8367    0.0000 C   0  0
   16.8408  -16.2453    0.0000 C   0  0
   16.8388  -13.7746    0.0000 C   0  0
   17.5552  -13.3631    0.0000 C   0  0
   17.5559  -12.5389    0.0000 C   0  0
   16.8411  -12.1252    0.0000 C   0  0
   16.1240  -12.5418    0.0000 C   0  0
   16.1268  -13.3646    0.0000 C   0  0
 17 14  1  0
 14 11  1  0
 11  8  1  0
  8  5  1  0
  5  2  1  0
 14 13  1  0
  2 22  1  0
 15 14  1  0
 22 23  1  0
  9  8  1  0
 22 24  2  0
  5  4  1  0
 23 25  1  0
  6  5  1  0
 19 26  1  0
 17 16  1  0
 26 27  2  0
 18 17  1  0
 27 28  1  0
 28 29  2  0
 11 10  1  0
 29 30  1  0
 12 11  1  0
 30 31  2  0
 31 26  1  0
  2  1  1  0
  3  2  1  0
 32 33  2  0
 19 20  1  0
 33 34  1  0
 20 17  1  0
 34 35  2  0
  8  7  1  0
 35 36  1  0
 20 21  2  0
 36 37  2  0
 37 32  1  0
 28 32  1  0
M  END