
  SciTegic11201309402D

 18 21  0  0  1  0            999 V2000
   -0.6608   -0.8472    0.0000 O   0  0
   -1.9792   -1.5119    0.0000 O   0  0
    1.0014    0.4705    0.0000 N   0  0
   -0.3612   -0.0588    0.0000 C   0  0  2  0  0  0
    0.5408   -0.2140    0.0000 C   0  0  1  0  0  0
   -1.0840    0.4539    0.0000 C   0  0
    0.4584    1.1383    0.0000 C   0  0  2  0  0  0
    0.0044    0.5495    0.0000 C   0  0
   -1.4931   -0.8454    0.0000 C   0  0
   -1.7483   -0.0556    0.0000 C   0  0
   -1.0276    1.3303    0.0000 C   0  0
   -0.2314    1.6592    0.0000 C   0  0
    0.9033   -0.9551    0.0000 C   0  0
    1.8245    0.4139    0.0000 C   0  0
    1.7263   -1.0117    0.0000 C   0  0
    2.1869   -0.3273    0.0000 C   0  0
   -0.2359    0.4186    0.0000 H   0  0
   -0.0589   -1.0142    0.0000 H   0  0
  4  1  1  6
  1  9  1  0
  2  9  2  0
  3  5  1  0
  3  7  1  0
  3 14  1  0
  4  5  1  0
  4  6  1  0
  4  8  1  0
  5 13  1  0
  6 10  2  0
  6 11  1  0
  7  8  1  0
  7 12  1  0
  9 10  1  0
 11 12  2  0
 13 15  1  0
 14 16  1  0
 15 16  1  0
  7 17  1  1
  5 18  1  1
M  END