
  SciTegic09171211542D

 22 23  0  0  0  0            999 V2000
   18.4500   -8.0375    0.0000 O   0  0
   18.8667   -7.3250    0.0000 P   0  0
   18.0413   -7.3204    0.0000 O   0  0
   14.3500   -3.5000    0.0000 C   0  0
   14.3500   -4.3250    0.0000 C   0  0
   15.0620   -4.7333    0.0000 C   0  0
   15.7740   -4.3250    0.0000 N   0  0
   15.7740   -3.5000    0.0000 C   0  0
   15.0620   -3.0833    0.0000 C   0  0
   15.0601   -2.2572    0.0000 C   0  0
   15.7746   -1.8447    0.0000 N   0  0
   14.3457   -1.8447    0.0000 O   0  0
   16.4879   -4.7385    0.0000 C   0  0  2  0  0  0
   16.5740   -5.5585    0.0000 O   0  0
   17.3808   -5.7312    0.0000 C   0  0  1  0  0  0
   17.7943   -5.0173    0.0000 C   0  0  2  0  0  0
   17.2431   -4.4035    0.0000 C   0  0  1  0  0  0
   17.7152   -6.4854    0.0000 C   0  0
   18.5356   -6.5728    0.0000 O   0  0
   19.6904   -7.4144    0.0000 O   0  0
   17.4157   -3.5968    0.0000 O   0  0
   18.6149   -4.9322    0.0000 O   0  0
 10 12  2  0
  9 10  1  0
  2  1  1  0
 13  7  1  1
 13 14  1  0
  4  9  1  0
  5  6  2  0
  6  7  1  0
  7  8  1  0
 14 15  1  0
 15 16  1  0
 16 17  1  0
 17 13  1  0
  8  9  2  0
 15 18  1  1
  3  2  1  0
 18 19  1  0
 19  2  1  0
  4  5  1  0
  2 20  2  0
 17 21  1  6
 10 11  1  0
 16 22  1  6
M  END