
  SciTegic11201309402D

 68 71  0  0  1  0            999 V2000
    1.6042    1.0875    0.0000 N   0  0
    3.0167    0.2708    0.0000 C   0  0
    3.3417   -2.8167    0.0000 N   0  0
    3.4667   -0.4167    0.0000 N   0  0
   -0.7083    0.4708    0.0000 N   0  0
    0.7792    1.1333    0.0000 C   0  0
    3.6417   -2.0417    0.0000 C   0  0
   -1.2333   -0.1792    0.0000 C   0  0
    2.8292   -3.4625    0.0000 C   0  0  1  0  0  0
    2.3792    0.7875    0.0000 C   0  0  2  0  0  0
    3.6917   -1.2167    0.0000 C   0  0  1  0  0  0
   -1.5708   -1.7750    0.0000 N   0  0
   -0.0208    0.9208    0.0000 C   0  0  1  0  0  0
   -1.3583   -2.5667    0.0000 C   0  0
   -1.5333   -0.9500    0.0000 C   0  0  2  0  0  0
    4.5042   -1.1292    0.0000 C   0  0
    3.3792   -4.0667    0.0000 C   0  0
   -0.9083   -3.2667    0.0000 C   0  0
    1.3292   -4.1250    0.0000 S   0  0
    0.5292   -4.1292    0.0000 S   0  0
    6.9167   -4.9625    0.0000 C   0  0
    5.1917   -1.6250    0.0000 C   0  0
   -0.2708   -3.7792    0.0000 C   0  0
    3.6417    0.8250    0.0000 O   0  0
    0.6292    1.7458    0.0000 O   0  0
   -1.9458    0.2375    0.0000 O   0  0
    4.4542   -2.2167    0.0000 O   0  0
    2.1292   -3.9125    0.0000 C   0  0
   -2.3333   -0.7750    0.0000 C   0  0
   -0.3583    1.6708    0.0000 C   0  0
   -2.1208   -2.9042    0.0000 O   0  0
    3.1167   -4.8625    0.0000 O   0  0
    7.3292   -4.2417    0.0000 O   0  0
    5.0042   -2.2500    0.0000 O   0  0
    4.1917   -3.9042    0.0000 N   0  0
    6.1042   -4.9625    0.0000 N   0  0
    7.3292   -5.6750    0.0000 C   0  0  1  0  0  0
    2.7917    1.5083    0.0000 C   0  0
    6.0167   -1.5375    0.0000 N   0  0
   -3.0583   -1.1792    0.0000 C   0  0
   -4.4958   -1.9917    0.0000 C   0  0
    8.1542   -5.6750    0.0000 N   0  0
    0.1292    2.3458    0.0000 C   0  0
   -3.7708   -0.7625    0.0000 C   0  0
   -3.0583   -2.0042    0.0000 C   0  0
    4.8542   -7.1000    0.0000 N   0  0
   -4.4833   -1.1667    0.0000 C   0  0
   -3.7708   -2.4125    0.0000 C   0  0
   -5.2083   -2.4042    0.0000 O   0  0
   -1.0333   -3.6875    0.0000 C   0  0
    0.2042   -4.4042    0.0000 C   0  0
    5.5417   -4.3417    0.0000 C   0  0
    4.7417   -4.5167    0.0000 C   0  0
    5.6792   -7.1000    0.0000 C   0  0
    6.9167   -6.3875    0.0000 C   0  0
    2.3792    2.2250    0.0000 C   0  0
    3.6167    1.5083    0.0000 C   0  0
   -5.2083   -3.2292    0.0000 C   0  0
    0.9542    2.2583    0.0000 C   0  0
   -0.2083    3.0958    0.0000 C   0  0
    6.0917   -6.3875    0.0000 C   0  0
   -4.4958   -3.6417    0.0000 C   0  0
   -1.4458   -4.4042    0.0000 C   0  0
   -0.2083   -5.1167    0.0000 C   0  0
    1.4417    2.9250    0.0000 C   0  0
    0.2792    3.7708    0.0000 C   0  0
   -1.0333   -5.1167    0.0000 C   0  0
    1.1042    3.6833    0.0000 C   0  0
  2 10  1  0
  3  7  1  0
  4  2  1  0
  5 13  1  0
  6  1  1  0
  7 11  1  0
  8  5  1  0
  9  3  1  0
 10  1  1  0
 11  4  1  0
 12 15  1  0
 13  6  1  0
 14 12  1  0
 15  8  1  0
 11 16  1  6
  9 17  1  1
 18 14  1  0
 19 28  1  0
 20 19  1  0
 21 36  1  0
 22 16  1  0
 23 18  1  0
 24  2  2  0
 25  6  2  0
 26  8  2  0
 27  7  2  0
  9 28  1  0
 15 29  1  6
 13 30  1  6
 31 14  2  0
 32 17  2  0
 33 21  2  0
 34 22  2  0
 35 17  1  0
 36 52  1  0
 37 21  1  0
 10 38  1  1
 39 22  1  0
 40 29  1  0
 41 48  1  0
 37 42  1  1
 43 30  1  0
 44 40  2  0
 45 40  1  0
 46 54  1  0
 47 44  1  0
 48 45  2  0
 49 41  1  0
 50 23  1  0
 51 23  1  0
 52 53  1  0
 53 35  1  0
 54 61  1  0
 37 55  1  0
 56 38  1  0
 57 38  1  0
 58 49  1  0
 59 43  1  0
 60 43  2  0
 61 55  1  0
 62 58  1  0
 63 50  1  0
 64 51  1  0
 65 59  2  0
 66 60  1  0
 67 64  1  0
 68 66  2  0
 65 68  1  0
 47 41  2  0
 23 20  1  0
 63 67  1  0
M  END