
  SciTegic02271515092D

 41 43  0  0  0  0            999 V2000
    7.5303  -15.0458    0.0000 O   0  0
    6.1010  -15.8794    0.0000 O   0  0
    4.6641  -15.0578    0.0000 N   0  0
    4.6586  -13.4061    0.0000 O   0  0
    6.8080  -13.8074    0.0000 O   0  0
    6.8122  -14.6397    0.0000 C   0  0  2  0  0  0
    6.0975  -15.0564    0.0000 C   0  0  1  0  0  0
    5.3787  -14.6410    0.0000 C   0  0  2  0  0  0
    5.3753  -13.8181    0.0000 C   0  0  2  0  0  0
    6.0899  -13.4013    0.0000 C   0  0  1  0  0  0
    6.0879  -12.5727    0.0000 C   0  0
   10.3934  -13.3912    0.0000 O   0  0
   10.3934  -15.0457    0.0000 N   0  0
    8.9598  -15.8731    0.0000 O   0  0
    8.9597  -13.3912    0.0000 O   0  0
    9.6808  -13.8069    0.0000 C   0  0
    9.6808  -14.6342    0.0000 C   0  0  1  0  0  0
    8.9597  -15.0458    0.0000 C   0  0  2  0  0  0
    8.2472  -14.6343    0.0000 C   0  0  1  0  0  0
    8.2472  -13.8070    0.0000 C   0  0  1  0  0  0
    7.5303  -13.3913    0.0000 C   0  0
    7.5319  -12.5665    0.0000 O   0  0
    6.8012  -12.1586    0.0000 O   0  0
    8.2395  -15.4583    0.0000 H   0  0
    3.9480  -14.6487    0.0000 C   0  0
    3.2356  -15.0642    0.0000 C   0  0
    3.9443  -13.8239    0.0000 O   0  0
    2.5208  -14.6538    0.0000 C   0  0
    1.8088  -15.0687    0.0000 C   0  0
    1.8121  -15.8943    0.0000 C   0  0
    2.5332  -16.3033    0.0000 C   0  0
    3.2422  -15.8861    0.0000 C   0  0
   10.3933  -15.8705    0.0000 C   0  0
   11.1076  -16.2830    0.0000 C   0  0
    9.6791  -16.2828    0.0000 O   0  0
    1.1002  -16.3109    0.0000 O   0  0
    0.3835  -15.9026    0.0000 C   0  0
    2.5181  -13.8290    0.0000 F   0  0
    1.0929  -14.6592    0.0000 F   0  0
    2.5399  -17.1281    0.0000 F   0  0
    3.9598  -16.2926    0.0000 F   0  0
 10  5  1  0
  5  6  1  0
  6  7  1  0
  7  8  1  0
  8  9  1  0
  9 10  1  0
 10 11  1  1
  6  1  1  1
  7  2  1  6
  8  3  1  1
  9  4  1  1
 20 15  1  0
 15 16  1  0
 16 17  1  0
 17 18  1  0
 18 19  1  0
 19 20  1  0
 20 21  1  1
 16 12  1  0
 17 13  1  6
 18 14  1  1
 19  1  1  0
 21 22  1  0
 11 23  1  0
 19 24  1  1
  3 25  1  0
 25 26  1  0
 25 27  2  0
 26 28  2  0
 28 29  1  0
 29 30  2  0
 30 31  1  0
 31 32  2  0
 32 26  1  0
 13 33  1  0
 33 34  1  0
 33 35  2  0
 30 36  1  0
 36 37  1  0
 28 38  1  0
 29 39  1  0
 31 40  1  0
 32 41  1  0
M  END