
          11280715122D 1   1.00000     0.00000     0

 34 37  0     0  0            999 V2000
    6.5750  -10.2125    0.0000 C   0  0  0  0  0  0           0  0  0
    5.8625   -9.8042    0.0000 C   0  0  0  0  0  0           0  0  0
    1.8167  -10.3167    0.0000 N   0  0  3  0  0  0           0  0  0
    6.5750  -11.0417    0.0000 C   0  0  0  0  0  0           0  0  0
    1.1000   -9.9042    0.0000 C   0  0  0  0  0  0           0  0  0
    1.1000   -9.0792    0.0000 C   0  0  0  0  0  0           0  0  0
    3.1792  -11.2417    0.0000 N   0  0  3  0  0  0           0  0  0
    5.8625   -8.9792    0.0000 N   0  0  3  0  0  0           0  0  0
    7.2875  -11.4542    0.0000 N   0  0  0  0  0  0           0  0  0
    5.1417  -10.2167    0.0000 O   0  0  0  0  0  0           0  0  0
    1.8125   -8.6625    0.0000 C   0  0  0  0  0  0           0  0  0
    1.7542  -11.1417    0.0000 C   0  0  0  0  0  0           0  0  0
    2.5542   -9.9542    0.0000 C   0  0  0  0  0  0           0  0  0
    5.8625  -11.4542    0.0000 N   0  0  0  0  0  0           0  0  0
    2.4375  -11.6000    0.0000 C   0  0  0  0  0  0           0  0  0
    3.2375  -10.4167    0.0000 C   0  0  0  0  0  0           0  0  0
    7.2875   -9.8000    0.0000 C   0  0  0  0  0  0           0  0  0
    1.8042   -7.8292    0.0000 C   0  0  0  0  0  0           0  0  0
    3.8542  -11.7042    0.0000 C   0  0  0  0  0  0           0  0  0
    4.5667  -11.2875    0.0000 C   0  0  0  0  0  0           0  0  0
    0.3792   -8.6667    0.0000 C   0  0  0  0  0  0           0  0  0
    0.3792  -10.3167    0.0000 C   0  0  0  0  0  0           0  0  0
    8.0042  -11.0417    0.0000 C   0  0  0  0  0  0           0  0  0
    5.1500  -11.8667    0.0000 C   0  0  0  0  0  0           0  0  0
    6.5750   -8.5625    0.0000 C   0  0  0  0  0  0           0  0  0
    5.1417   -8.5667    0.0000 C   0  0  0  0  0  0           0  0  0
    2.5167   -7.4167    0.0000 C   0  0  0  0  0  0           0  0  0
    1.0917   -7.4292    0.0000 C   0  0  0  0  0  0           0  0  0
    8.0042  -10.2125    0.0000 C   0  0  0  0  0  0           0  0  0
   -0.3333   -9.0792    0.0000 C   0  0  0  0  0  0           0  0  0
   -0.3333   -9.9042    0.0000 C   0  0  0  0  0  0           0  0  0
    1.0792   -6.6042    0.0000 C   0  0  0  0  0  0           0  0  0
    2.5167   -6.5917    0.0000 C   0  0  0  0  0  0           0  0  0
    1.7917   -6.1792    0.0000 C   0  0  0  0  0  0           0  0  0
  2  1  1  0     0  0
  3 13  1  0     0  0
  4  1  2  0     0  0
  5  3  1  0     0  0
  6  5  1  0     0  0
  7 19  1  0     0  0
  8  2  1  0     0  0
  9  4  1  0     0  0
 10  2  2  0     0  0
 11  6  1  0     0  0
 12 15  1  0     0  0
 13 16  1  0     0  0
 14  4  1  0     0  0
 15  7  1  0     0  0
 16  7  1  0     0  0
 17  1  1  0     0  0
 18 11  1  0     0  0
 19 20  1  0     0  0
 20 24  1  0     0  0
 21  6  2  0     0  0
 22  5  2  0     0  0
 23 29  1  0     0  0
 24 14  1  0     0  0
 25  8  1  0     0  0
 26  8  1  0     0  0
 27 18  2  0     0  0
 28 18  1  0     0  0
 29 17  2  0     0  0
 30 31  2  0     0  0
 31 22  1  0     0  0
 32 28  2  0     0  0
 33 27  1  0     0  0
 34 32  1  0     0  0
 23  9  2  0     0  0
 12  3  1  0     0  0
 30 21  1  0     0  0
 34 33  2  0     0  0
M  END