
  Mrv0541 04051115152D          

 50 57  0  0  0  0            999 V2000
   -0.8575    4.5378    0.0000 N   0  0  0  0  0  0  0  0  0  0  0  0
   -1.4705    3.9857    0.0000 C   0  0  0  0  0  0  0  0  0  0  0  0
   -2.2552    4.2407    0.0000 C   0  0  0  0  0  0  0  0  0  0  0  0
   -2.8683    3.6886    0.0000 C   0  0  0  0  0  0  0  0  0  0  0  0
   -2.6967    2.8817    0.0000 C   0  0  0  0  0  0  0  0  0  0  0  0
   -1.2990    3.1788    0.0000 C   0  0  0  0  0  0  0  0  0  0  0  0
   -1.9121    2.6267    0.0000 C   0  0  0  0  0  0  0  0  0  0  0  0
   -1.7406    1.8198    0.0000 N   0  3  0  0  0  0  0  0  0  0  0  0
   -2.3537    1.2677    0.0000 C   0  0  0  0  0  0  0  0  0  0  0  0
   -2.1822    0.4608    0.0000 C   0  0  0  0  0  0  0  0  0  0  0  0
   -1.3975    0.2058    0.0000 C   0  0  0  0  0  0  0  0  0  0  0  0
   -1.2260   -0.6012    0.0000 C   0  0  0  0  0  0  0  0  0  0  0  0
   -1.8391   -1.1532    0.0000 C   0  0  0  0  0  0  0  0  0  0  0  0
   -2.6237   -0.8983    0.0000 C   0  0  0  0  0  0  0  0  0  0  0  0
   -2.7952   -0.0913    0.0000 C   0  0  0  0  0  0  0  0  0  0  0  0
   -3.1383    1.5227    0.0000 C   0  0  0  0  0  0  0  0  0  0  0  0
   -3.7514    0.9706    0.0000 C   0  0  0  0  0  0  0  0  0  0  0  0
   -3.3098    2.3296    0.0000 C   0  0  0  0  0  0  0  0  0  0  0  0
   -4.0945    2.5846    0.0000 C   0  0  0  0  0  0  0  0  0  0  0  0
   -4.7075    2.0325    0.0000 C   0  0  0  0  0  0  0  0  0  0  0  0
   -4.5360    1.2256    0.0000 C   0  0  0  0  0  0  0  0  0  0  0  0
   -5.1491    0.6735    0.0000 N   0  0  0  0  0  0  0  0  0  0  0  0
   -0.9560    1.5648    0.0000 C   0  0  0  0  0  0  0  0  0  0  0  0
   -0.3429    2.1169    0.0000 C   0  0  0  0  0  0  0  0  0  0  0  0
    0.4418    1.8619    0.0000 C   0  0  0  0  0  0  0  0  0  0  0  0
    1.0548    2.4139    0.0000 C   0  0  0  0  0  0  0  0  0  0  0  0
    1.8395    2.1590    0.0000 C   0  0  0  0  0  0  0  0  0  0  0  0
    2.0110    1.3520    0.0000 C   0  0  0  0  0  0  0  0  0  0  0  0
    1.3979    0.8000    0.0000 C   0  0  0  0  0  0  0  0  0  0  0  0
    1.4841   -0.0205    0.0000 N   0  0  0  0  0  0  0  0  0  0  0  0
    0.7305   -0.3560    0.0000 N   0  0  0  0  0  0  0  0  0  0  0  0
    0.1784    0.2571    0.0000 N   0  0  0  0  0  0  0  0  0  0  0  0
    0.5909    0.9715    0.0000 C   0  0  0  0  0  0  0  0  0  0  0  0
    2.1986   -0.4330    0.0000 C   0  0  0  0  0  0  0  0  0  0  0  0
    2.1986   -1.2580    0.0000 C   0  0  0  0  0  0  0  0  0  0  0  0
    2.9131   -1.6705    0.0000 N   0  0  0  0  0  0  0  0  0  0  0  0
    2.9131   -2.4955    0.0000 C   0  0  0  0  0  0  0  0  0  0  0  0
    3.6275   -2.9080    0.0000 C   0  0  0  0  0  0  0  0  0  0  0  0
    4.3420   -2.4955    0.0000 C   0  0  0  0  0  0  0  0  0  0  0  0
    3.6275   -3.7330    0.0000 C   0  0  0  0  0  0  0  0  0  0  0  0
    4.3420   -4.1455    0.0000 C   0  0  0  0  0  0  0  0  0  0  0  0
    5.0565   -3.7330    0.0000 C   0  0  0  0  0  0  0  0  0  0  0  0
    5.0565   -2.9080    0.0000 C   0  0  0  0  0  0  0  0  0  0  0  0
    2.9131   -4.1455    0.0000 N   0  0  0  0  0  0  0  0  0  0  0  0
    2.1986   -3.7330    0.0000 C   0  0  0  0  0  0  0  0  0  0  0  0
    1.4841   -4.1455    0.0000 C   0  0  0  0  0  0  0  0  0  0  0  0
    2.1986   -2.9080    0.0000 C   0  0  0  0  0  0  0  0  0  0  0  0
    1.4841   -2.4955    0.0000 C   0  0  0  0  0  0  0  0  0  0  0  0
    0.7697   -2.9080    0.0000 C   0  0  0  0  0  0  0  0  0  0  0  0
    0.7697   -3.7330    0.0000 C   0  0  0  0  0  0  0  0  0  0  0  0
  2  1  1  0  0  0  0
  3  2  2  0  0  0  0
  6  2  1  0  0  0  0
  4  3  1  0  0  0  0
  5  4  2  0  0  0  0
  7  5  1  0  0  0  0
 18  5  1  0  0  0  0
  7  6  2  0  0  0  0
  7  8  1  0  0  0  0
  9  8  2  0  0  0  0
 23  8  1  0  0  0  0
  9 10  1  0  0  0  0
 16  9  1  0  0  0  0
 10 11  2  0  0  0  0
 10 15  1  0  0  0  0
 11 12  1  0  0  0  0
 12 13  2  0  0  0  0
 13 14  1  0  0  0  0
 14 15  2  0  0  0  0
 16 17  2  0  0  0  0
 16 18  1  0  0  0  0
 21 17  1  0  0  0  0
 19 18  2  0  0  0  0
 20 19  1  0  0  0  0
 21 20  2  0  0  0  0
 21 22  1  0  0  0  0
 23 24  1  0  0  0  0
 24 25  1  0  0  0  0
 25 26  1  0  0  0  0
 26 27  1  0  0  0  0
 27 28  1  0  0  0  0
 28 29  1  0  0  0  0
 29 30  1  0  0  0  0
 29 33  2  0  0  0  0
 30 31  1  0  0  0  0
 34 30  1  0  0  0  0
 31 32  2  0  0  0  0
 33 32  1  0  0  0  0
 34 35  1  0  0  0  0
 35 36  1  0  0  0  0
 37 36  1  0  0  0  0
 37 38  2  0  0  0  0
 37 47  1  0  0  0  0
 38 39  1  0  0  0  0
 38 40  1  0  0  0  0
 39 43  2  0  0  0  0
 40 41  1  0  0  0  0
 40 44  2  0  0  0  0
 41 42  2  0  0  0  0
 42 43  1  0  0  0  0
 45 44  1  0  0  0  0
 45 46  1  0  0  0  0
 45 47  2  0  0  0  0
 46 50  1  0  0  0  0
 47 48  1  0  0  0  0
 48 49  1  0  0  0  0
 49 50  1  0  0  0  0
M  CHG  1   8   1
M  END