
          11280714482D 1   1.00000     0.00000     0

 12 13  0     0  0            999 V2000
   -0.8333   -2.5667    0.0000 N   0  0  0  0  0  0           0  0  0
    0.2042   -2.5667    0.0000 C   0  0  0  0  0  0           0  0  0
   -0.3125   -2.8667    0.0000 C   0  0  3  0  0  0           0  0  0
    1.2417   -2.5667    0.0000 N   0  0  0  0  0  0           0  0  0
    0.7292   -2.8750    0.0000 C   0  0  0  0  0  0           0  0  0
   -1.3458   -2.8667    0.0000 C   0  0  0  0  0  0           0  0  0
    0.2042   -1.9667    0.0000 C   0  0  0  0  0  0           0  0  0
    1.2417   -1.9667    0.0000 C   0  0  0  0  0  0           0  0  0
   -0.3125   -3.4667    0.0000 C   0  0  0  0  0  0           0  0  0
    0.7292   -1.6667    0.0000 C   0  0  0  0  0  0           0  0  0
   -1.3458   -3.4667    0.0000 C   0  0  0  0  0  0           0  0  0
   -0.8333   -3.7667    0.0000 C   0  0  0  0  0  0           0  0  0
  2  3  1  0     0  0
  3  1  1  0     0  0
  4  5  2  0     0  0
  5  2  1  0     0  0
  6  1  1  0     0  0
  7  2  2  0     0  0
  8 10  2  0     0  0
  9  3  1  0     0  0
 10  7  1  0     0  0
 11  6  1  0     0  0
 12 11  1  0     0  0
 12  9  1  0     0  0
  8  4  1  0     0  0
M  END