
          11280714582D 1   1.00000     0.00000     0

 21 21  0     0  0            999 V2000
    3.2375   -6.2167    0.0000 S   0  0  3  0  0  0           0  0  0
    3.2417   -5.3875    0.0000 O   0  0  0  0  0  0           0  0  0
    3.2417   -7.0500    0.0000 O   0  0  0  0  0  0           0  0  0
    2.4042   -6.2167    0.0000 C   0  0  0  0  0  0           0  0  0
    4.0625   -6.2250    0.0000 N   0  0  0  0  0  0           0  0  0
   10.4750   -6.6417    0.0000 C   0  0  0  0  0  0           0  0  0
   10.4667   -7.4542    0.0000 O   0  0  0  0  0  0           0  0  0
    6.9042   -6.2250    0.0000 C   0  0  0  0  0  0           0  0  0
    7.6250   -6.6417    0.0000 C   0  0  0  0  0  0           0  0  0
   11.1792   -6.2250    0.0000 O   0  0  0  0  0  0           0  0  0
    9.7625   -6.2250    0.0000 C   0  0  0  0  0  0           0  0  0
    1.9917   -5.4917    0.0000 C   0  0  0  0  0  0           0  0  0
    1.9917   -6.9375    0.0000 C   0  0  0  0  0  0           0  0  0
    6.2000   -6.6417    0.0000 C   0  0  0  0  0  0           0  0  0
    8.3375   -6.2250    0.0000 C   0  0  0  0  0  0           0  0  0
    4.7667   -6.6417    0.0000 C   0  0  0  0  0  0           0  0  0
    9.0417   -6.6417    0.0000 C   0  0  0  0  0  0           0  0  0
    5.4875   -6.2250    0.0000 C   0  0  0  0  0  0           0  0  0
    1.1542   -5.4917    0.0000 C   0  0  0  0  0  0           0  0  0
    1.1542   -6.9417    0.0000 C   0  0  0  0  0  0           0  0  0
    0.7417   -6.2167    0.0000 C   0  0  0  0  0  0           0  0  0
  2  1  2  0     0  0
  3  1  2  0     0  0
  4  1  1  0     0  0
  5  1  1  0     0  0
  6 11  1  0     0  0
  7  6  2  0     0  0
  8 14  1  0     0  0
  9  8  2  0     0  0
 10  6  1  0     0  0
 11 17  1  0     0  0
 12  4  2  0     0  0
 13  4  1  0     0  0
 14 18  1  0     0  0
 15  9  1  0     0  0
 16  5  1  0     0  0
 17 15  1  0     0  0
 18 16  1  0     0  0
 19 12  1  0     0  0
 20 13  2  0     0  0
 21 20  1  0     0  0
 21 19  2  0     0  0
M  END