
          11280715452D 1   1.00000     0.00000     0

 16 18  0     0  0            999 V2000
    1.4625   -1.1042    0.0000 N   0  0  0  0  0  0           0  0  0
   -1.3833    0.5458    0.0000 C   0  0  3  0  0  0           0  0  0
   -0.6708    0.1333    0.0000 C   0  0  0  0  0  0           0  0  0
    0.7542   -0.6917    0.0000 C   0  0  0  0  0  0           0  0  0
    0.0500    0.5458    0.0000 C   0  0  0  0  0  0           0  0  0
    0.7542    0.1333    0.0000 C   0  0  0  0  0  0           0  0  0
    2.1792   -0.7000    0.0000 C   0  0  0  0  0  0           0  0  0
   -1.3833    1.3708    0.0000 O   0  0  0  0  0  0           0  0  0
   -2.1000    0.1333    0.0000 O   0  0  0  0  0  0           0  0  0
   -0.6708   -0.6917    0.0000 C   0  0  0  0  0  0           0  0  0
    0.0500   -1.1125    0.0000 C   0  0  0  0  0  0           0  0  0
    1.4625    0.5333    0.0000 C   0  0  0  0  0  0           0  0  0
    2.8917   -1.1125    0.0000 N   0  0  0  0  0  0           0  0  0
    2.1792    0.1250    0.0000 C   0  0  0  0  0  0           0  0  0
   -2.8000    1.3833    0.0000 C   0  0  0  0  0  0           0  0  0
   -2.8083    0.5500    0.0000 C   0  0  0  0  0  0           0  0  0
  2  3  1  0     0  0
  3 10  2  0     0  0
  4  1  1  0     0  0
  5  6  2  0     0  0
  6  4  1  0     0  0
  7  1  2  0     0  0
  8  2  1  0     0  0
  9  2  1  0     0  0
 10 11  1  0     0  0
 11  4  2  0     0  0
 12 14  2  0     0  0
 13  7  1  0     0  0
 14  7  1  0     0  0
 15  8  1  0     0  0
 16  9  1  0     0  0
  6 12  1  0     0  0
  5  3  1  0     0  0
 15 16  1  0     0  0
M  END