
  SciTegic12181313002D

 56 59  0  0  0  0            999 V2000
    0.3688   -0.4146    0.0000 C   0  0
   -0.0437   -1.1290    0.0000 C   0  0
   -0.8687   -1.1290    0.0000 C   0  0
   -1.2812   -0.4146    0.0000 C   0  0
   -0.8687    0.2999    0.0000 C   0  0
   -0.0437    0.2999    0.0000 C   0  0
    1.5991   -2.2176    0.0000 C   0  0
    1.6937   -1.3980    0.0000 C   0  0  2  0  0  0
    0.9366   -1.7258    0.0000 C   0  0
    0.8420   -2.5454    0.0000 O   0  0
    2.2615   -2.7093    0.0000 C   0  0
    3.0186   -2.3815    0.0000 C   0  0
    3.6810   -2.8732    0.0000 C   0  0
    3.5864   -3.6928    0.0000 C   0  0
    2.8293   -4.0206    0.0000 C   0  0
    2.1669   -3.5289    0.0000 C   0  0
    4.2488   -4.1845    0.0000 O   0  0
   -0.2936    0.0772    0.0000 C   0  0
   -1.0507   -0.2506    0.0000 O   0  0
    0.5581    1.2246    0.0000 C   0  0  1  0  0  0
    1.2205    0.7328    0.0000 C   0  0
    0.6527    2.0441    0.0000 C   0  0
    1.1259   -0.0867    0.0000 O   0  0
   -0.0097    2.5358    0.0000 C   0  0
   -0.7668    2.2080    0.0000 O   0  0
    2.6401    0.5689    0.0000 C   0  0  1  0  0  0
    3.1132   -1.5619    0.0000 C   0  0
    3.7757   -2.0537    0.0000 C   0  0
    3.2079   -0.7424    0.0000 O   0  0
    3.3971    0.8967    0.0000 C   0  0
    3.4918    1.7163    0.0000 O   0  0
    3.9649   -0.4146    0.0000 C   0  0  2  0  0  0
    4.6274   -0.9063    0.0000 C   0  0
    4.5327   -1.7258    0.0000 S   0  3
    4.7220   -0.0867    0.0000 C   0  0
    4.8166    0.7328    0.0000 O   0  0
    5.1952   -2.2176    0.0000 O   0  5
    4.1542   -5.0041    0.0000 P   0  0
    4.0596   -5.8236    0.0000 O   0  0
    4.9737   -5.0987    0.0000 O   0  0
    3.3346   -4.9094    0.0000 O   0  0
    2.9833    1.3191    0.0000 C   0  0
    2.5052    1.9915    0.0000 C   0  0
    1.6839    1.9137    0.0000 C   0  0
    1.2059    2.5860    0.0000 C   0  0
    1.5491    3.3362    0.0000 C   0  0
    2.3704    3.4141    0.0000 C   0  0
    2.8485    2.7417    0.0000 C   0  0
    1.0711    4.0086    0.0000 O   0  0
    2.3561   -1.8897    0.0000 N   0  0
    0.2742   -1.2341    0.0000 N   0  0
   -0.1990    0.8967    0.0000 N   0  0
    1.9776    1.0606    0.0000 N   0  0
    0.0849    3.3554    0.0000 N   0  0
    4.0596    0.4050    0.0000 N   0  0
    5.3844   -0.5785    0.0000 N   0  0
 18 19  2  0
 20 21  1  0
 20 22  1  6
 21 23  2  0
 22 24  1  0
 24 25  2  0
 27 28  1  0
 27 29  2  0
 26 30  1  0
 30 31  2  0
 32 33  1  0
 33 34  1  0
 32 35  1  6
 35 36  2  0
 34 28  1  0
  4  5  1  0
 34 37  1  1
  5  6  1  0
 17 38  1  0
 38 39  1  0
 38 40  2  0
  1  2  1  0
 38 41  1  0
  1  6  1  0
 26 42  1  1
  2  3  1  0
 42 43  1  0
  3  4  1  0
 43 44  2  0
  8  7  1  1
 44 45  1  0
  8  9  1  0
 45 46  2  0
 46 47  1  0
  9 10  2  0
 47 48  2  0
 48 43  1  0
 46 49  1  0
  7 11  1  0
 11 12  2  0
 12 13  1  0
 13 14  2  0
 14 15  1  0
 15 16  2  0
 16 11  1  0
 14 17  1  0
  1 18  1  0
 18 52  1  0
 52 20  1  0
 50 27  1  0
  8 50  1  0
 21 53  1  0
 53 26  1  0
 24 54  1  0
  9 51  1  0
 51  1  1  0
 30 55  1  0
 55 32  1  0
 35 56  1  0
M  CHG  2  34   1  37  -1
M  END