
  SciTegic06051315212D

 80 90  0  0  0  0            999 V2000
   10.9101   -6.1923    0.0000 O   0  0
   12.3013   -5.3023    0.0000 O   0  0
   13.7681   -6.0627    0.0000 O   0  0
   13.8414   -7.7097    0.0000 O   0  0
   11.6813   -7.3978    0.0000 O   0  0
   13.2395   -8.8445    0.0000 O   0  0
   11.6418   -6.5737    0.0000 C   0  0  2  0  0  0
   12.3374   -6.1287    0.0000 C   0  0  1  0  0  0
   13.0725   -6.5077    0.0000 C   0  0  2  0  0  0
   13.1086   -7.3340    0.0000 C   0  0  1  0  0  0
   12.4130   -7.7790    0.0000 C   0  0  1  0  0  0
   12.4502   -8.5996    0.0000 C   0  0
   10.8942   -5.3692    0.0000 C   0  0  2  0  0  0
   11.5966   -4.9480    0.0000 O   0  0
   11.5807   -4.1249    0.0000 C   0  0
   10.8623   -3.7230    0.0000 C   0  0
   10.1760   -4.9755    0.0000 C   0  0  1  0  0  0
   10.1553   -4.1480    0.0000 C   0  0  2  0  0  0
    9.3618   -3.9118    0.0000 C   0  0  1  0  0  0
    9.3952   -5.2508    0.0000 C   0  0  2  0  0  0
    8.8889   -4.5905    0.0000 C   0  0  1  0  0  0
    8.5701   -5.3591    0.0000 O   0  0
    9.8515   -5.9361    0.0000 C   0  0
    9.4861   -6.6738    0.0000 O   0  0
   10.1314   -3.3212    0.0000 H   0  0
   10.1876   -5.7987    0.0000 H   0  0
    9.0901   -3.1346    0.0000 O   0  0
    8.2900   -4.0139    0.0000 H   0  0
   10.9344   -6.9944    0.0000 H   0  0
    9.6273   -2.5108    0.0000 C   0  0
    9.3555   -1.7337    0.0000 O   0  0
   10.4197   -2.2910    0.0000 C   0  0  2  0  0  0
   14.8212    1.6150    0.0000 O   0  0
   13.4980    2.6060    0.0000 O   0  0
   13.6925    4.2417    0.0000 O   0  0
   15.2079    4.8898    0.0000 O   0  0
   15.6774    2.7636    0.0000 O   0  0
   16.4821    4.7287    0.0000 O   0  0
   14.9202    2.4341    0.0000 C   0  0  2  0  0  0
   14.2586    2.9296    0.0000 C   0  0  1  0  0  0
   14.3542    3.7545    0.0000 C   0  0  2  0  0  0
   15.1147    4.0782    0.0000 C   0  0  1  0  0  0
   15.7764    3.5826    0.0000 C   0  0  1  0  0  0
   16.5311    3.9071    0.0000 C   0  0
   14.0566    1.3130    0.0000 C   0  0  2  0  0  0
   13.4148    1.8186    0.0000 O   0  0
   12.6501    1.5166    0.0000 C   0  0
   12.5272    0.7007    0.0000 C   0  0
   13.9414    0.5024    0.0000 C   0  0  1  0  0  0
   13.1742    0.1897    0.0000 C   0  0  2  0  0  0
   13.2329   -0.6412    0.0000 C   0  0  1  0  0  0
   14.4742   -0.1380    0.0000 C   0  0  2  0  0  0
   14.0347   -0.8446    0.0000 C   0  0  1  0  0  0
   14.8664   -0.8719    0.0000 O   0  0
   14.9546    0.5339    0.0000 C   0  0
   15.7738    0.4495    0.0000 O   0  0
   12.4089   -0.1293    0.0000 H   0  0
   14.7076    0.7999    0.0000 H   0  0
   12.6014   -1.1694    0.0000 O   0  0
   11.8282   -0.8867    0.0000 C   0  0
   11.1968   -1.4149    0.0000 C   0  0  2  0  0  0
   11.6865   -0.0758    0.0000 O   0  0
   13.7063   -1.6083    0.0000 H   0  0
   15.5633    1.9248    0.0000 H   0  0
   11.3041   -2.2398    0.0000 C   0  0  1  0  0  0
   10.4197   -1.4719    0.0000 C   0  0  1  0  0  0
    9.8378   -0.8941    0.0000 C   0  0
   10.0524   -0.0981    0.0000 C   0  0
    9.4711    0.4892    0.0000 C   0  0
    8.6749    0.2781    0.0000 C   0  0
    8.4633   -0.5292    0.0000 C   0  0
    9.0461   -1.1076    0.0000 C   0  0
    8.0920    0.8525    0.0000 O   0  0
   11.9363   -2.7603    0.0000 C   0  0
   11.7989   -3.5732    0.0000 C   0  0
   12.4334   -4.0966    0.0000 C   0  0
   13.2055   -3.8084    0.0000 C   0  0
   13.3395   -2.9919    0.0000 C   0  0
   12.7039   -2.4719    0.0000 C   0  0
   13.8414   -4.3312    0.0000 O   0  0
  6 12  1  0
 11  5  1  0
  5  7  1  0
  7  8  1  0
  8  9  1  0
  9 10  1  0
 10 11  1  0
 11 12  1  1
  7  1  1  0
  8  2  1  6
  9  3  1  1
 10  4  1  6
 18 16  1  0
 17 13  1  0
 13 14  1  0
 14 15  1  0
 15 16  2  0
 17 18  1  0
 18 19  1  0
 19 21  1  0
 20 17  1  0
 21 20  1  0
 22 21  1  0
 20 22  1  0
 20 23  1  6
 23 24  1  0
 18 25  1  1
 17 26  1  1
 19 27  1  1
 21 28  1  6
 13  1  1  1
  7 29  1  6
 27 30  1  0
 30 31  2  0
 32 30  1  1
 38 44  1  0
 43 37  1  0
 37 39  1  0
 39 40  1  0
 40 41  1  0
 41 42  1  0
 42 43  1  0
 43 44  1  1
 39 33  1  0
 40 34  1  6
 41 35  1  1
 42 36  1  6
 50 48  1  0
 49 45  1  0
 45 46  1  0
 46 47  1  0
 47 48  2  0
 49 50  1  0
 50 51  1  0
 51 53  1  0
 52 49  1  0
 53 52  1  0
 54 53  1  0
 52 54  1  0
 52 55  1  6
 55 56  1  0
 50 57  1  1
 49 58  1  1
 51 59  1  1
 59 60  1  0
 61 60  1  6
 60 62  2  0
 53 63  1  6
 45 33  1  1
 39 64  1  6
 66 32  1  0
 32 65  1  0
 65 61  1  0
 61 66  1  0
 67 68  2  0
 68 69  1  0
 69 70  2  0
 70 71  1  0
 71 72  2  0
 72 67  1  0
 66 67  1  6
 70 73  1  0
 74 75  2  0
 75 76  1  0
 76 77  2  0
 77 78  1  0
 78 79  2  0
 79 74  1  0
 65 74  1  1
 77 80  1  0
M  END