
  CDK    5/12/10,14:52

 32 35  0  0  0  0  0  0  0  0999 V2000
    9.5551    3.4681    0.0000 C   0  0  0  0  0  0  0  0  0  0  0  0
    9.5539    2.6408    0.0000 C   0  0  0  0  0  0  0  0  0  0  0  0
   10.2665    2.2282    0.0000 C   0  0  0  0  0  0  0  0  0  0  0  0
   10.9855    2.6414    0.0000 C   0  0  0  0  0  0  0  0  0  0  0  0
   10.9824    3.4721    0.0000 C   0  0  0  0  0  0  0  0  0  0  0  0
   10.2645    3.8808    0.0000 C   0  0  0  0  0  0  0  0  0  0  0  0
   10.2662    1.4075    0.0000 C   0  0  0  0  0  0  0  0  0  0  0  0
    9.5496    0.9976    0.0000 C   0  0  0  0  0  0  0  0  0  0  0  0
    9.5463    0.1766    0.0000 N   0  0  0  0  0  0  0  0  0  0  0  0
   10.2579   -0.2408    0.0000 N   0  0  0  0  0  0  0  0  0  0  0  0
   10.9746    0.1691    0.0000 C   0  0  0  0  0  0  0  0  0  0  0  0
   10.9796    0.9964    0.0000 C   0  0  0  0  0  0  0  0  0  0  0  0
    8.8383    1.4101    0.0000 C   0  0  0  0  0  0  0  0  0  0  0  0
    8.8429    2.2359    0.0000 C   0  0  0  0  0  0  0  0  0  0  0  0
    8.1313    2.6511    0.0000 C   0  0  0  0  0  0  0  0  0  0  0  0
    7.4145    2.2416    0.0000 C   0  0  0  0  0  0  0  0  0  0  0  0
    7.4137    1.4127    0.0000 C   0  0  0  0  0  0  0  0  0  0  0  0
    8.1260    1.0012    0.0000 C   0  0  0  0  0  0  0  0  0  0  0  0
    6.7015    2.6559    0.0000 Cl  0  0  0  0  0  0  0  0  0  0  0  0
   10.2534   -1.0654    0.0000 C   0  0  0  0  0  0  0  0  0  0  0  0
    9.5370   -1.4739    0.0000 N   0  0  0  0  0  0  0  0  0  0  0  0
   10.9653   -1.4816    0.0000 N   0  0  0  0  0  0  0  0  0  0  0  0
   11.6818   -1.0732    0.0000 C   0  0  0  0  0  0  0  0  0  0  0  0
    9.5325   -2.2986    0.0000 S   0  0  0  0  0  0  0  0  0  0  0  0
    8.8162   -2.7069    0.0000 N   0  0  0  0  0  0  0  0  0  0  0  0
   10.2393   -1.8783    0.0000 O   0  0  0  0  0  0  0  0  0  0  0  0
    9.9369   -3.0053    0.0000 O   0  0  0  0  0  0  0  0  0  0  0  0
    8.1086   -2.2891    0.0000 C   0  0  0  0  0  0  0  0  0  0  0  0
    7.3944   -2.6940    0.0000 C   0  0  0  0  0  0  0  0  0  0  0  0
    7.3856   -3.5190    0.0000 C   0  0  0  0  0  0  0  0  0  0  0  0
    8.0974   -3.9374    0.0000 C   0  0  0  0  0  0  0  0  0  0  0  0
    8.8178   -3.5308    0.0000 C   0  0  0  0  0  0  0  0  0  0  0  0
 15 16  2  0  0  0  0 
 16 17  1  0  0  0  0 
  4  5  1  0  0  0  0 
 17 18  2  0  0  0  0 
 18 13  1  0  0  0  0 
  8 13  1  0  0  0  0 
  2  3  1  0  0  0  0 
 16 19  1  0  0  0  0 
  5  6  2  0  0  0  0 
 10 20  1  0  0  0  0 
  7 12  1  0  0  0  0 
 20 21  2  0  0  0  0 
  8  9  2  0  0  0  0 
 20 22  1  0  0  0  0 
  9 10  1  0  0  0  0 
 22 23  1  0  0  0  0 
 10 11  1  0  0  0  0 
 21 24  1  0  0  0  0 
 11 12  1  0  0  0  0 
 24 25  1  0  0  0  0 
  3  7  1  0  0  0  0 
 24 26  2  0  0  0  0 
  6  1  1  0  0  0  0 
 24 27  2  0  0  0  0 
 25 28  1  0  0  0  0 
  7  8  1  0  0  0  0 
 13 14  2  0  0  0  0 
  1  2  2  0  0  0  0 
 14 15  1  0  0  0  0 
  3  4  2  0  0  0  0 
 25 32  1  0  0  0  0 
 28 29  1  0  0  0  0 
 29 30  1  0  0  0  0 
 30 31  1  0  0  0  0 
 31 32  1  0  0  0  0 
M  END