
  CDK    9/16/09,10:7

 28 28  0  0  0  0  0  0  0  0999 V2000
    5.4982   -7.1176    0.0000 C   0  0  0  0  0  0  0  0  0  0  0  0
    5.4969   -7.9452    0.0000 C   0  0  0  0  0  0  0  0  0  0  0  0
    6.2099   -8.3580    0.0000 C   0  0  0  0  0  0  0  0  0  0  0  0
    6.9291   -7.9446    0.0000 C   0  0  0  0  0  0  0  0  0  0  0  0
    6.9260   -7.1136    0.0000 C   0  0  0  0  0  0  0  0  0  0  0  0
    6.2079   -6.7048    0.0000 C   0  0  0  0  0  0  0  0  0  0  0  0
    4.7819   -8.3565    0.0000 C   0  0  0  0  0  0  0  0  0  0  0  0
    4.0681   -7.9431    0.0000 N   0  0  0  0  0  0  0  0  0  0  0  0
    4.0745   -7.1175    0.0000 C   0  0  0  0  0  0  0  0  0  0  0  0
    3.3616   -6.7041    0.0000 C   0  0  0  0  0  0  0  0  0  0  0  0
    2.6455   -7.1156    0.0000 C   0  0  0  0  0  0  0  0  0  0  0  0
    2.6469   -7.9448    0.0000 C   0  0  0  0  0  0  0  0  0  0  0  0
    3.3606   -8.3545    0.0000 C   0  0  0  0  0  0  0  0  0  0  0  0
    7.6384   -6.6975    0.0000 C   0  0  0  0  0  0  0  0  0  0  0  0
    8.3549   -7.1065    0.0000 N   0  0  0  0  0  0  0  0  0  0  0  0
    8.3563   -7.9301    0.0000 C   0  0  0  0  0  0  0  0  0  0  0  0
    9.0720   -8.3389    0.0000 C   0  0  0  0  0  0  0  0  0  0  0  0
    9.7854   -7.9229    0.0000 C   0  0  0  0  0  0  0  0  0  0  0  0
    9.7786   -7.0937    0.0000 C   0  0  0  0  0  0  0  0  0  0  0  0
    9.0624   -6.6886    0.0000 C   0  0  0  0  0  0  0  0  0  0  0  0
   10.5023   -8.3309    0.0000 C   0  0  0  0  0  0  0  0  0  0  0  0
   11.2142   -7.9139    0.0000 N   0  0  0  0  0  0  0  0  0  0  0  0
   11.9312   -8.3219    0.0000 O   0  0  0  0  0  0  0  0  0  0  0  0
    1.9311   -6.7030    0.0000 C   0  0  0  0  0  0  0  0  0  0  0  0
    1.9312   -5.8780    0.0000 N   0  0  0  0  0  0  0  0  0  0  0  0
    1.2169   -5.4654    0.0000 O   0  0  0  0  0  0  0  0  0  0  0  0
    8.3321   -9.7529    0.0000 Br  0  0  0  0  0  0  0  0  0  0  0  0
    2.9102   -9.5467    0.0000 Br  0  0  0  0  0  0  0  0  0  0  0  0
 12 13  2  0  0  0  0 
 13  8  1  0  0  0  0 
  5  6  2  0  0  0  0 
  5 14  1  0  0  0  0 
  6  1  1  0  0  0  0 
 14 15  1  0  0  0  0 
 15 16  2  0  0  0  0 
  2  7  1  0  0  0  0 
 16 17  1  0  0  0  0 
  2  3  1  0  0  0  0 
 17 18  2  0  0  0  0 
  7  8  1  0  0  0  0 
 18 19  1  0  0  0  0 
 19 20  2  0  0  0  0 
 20 15  1  0  0  0  0 
  8  9  2  0  0  0  0 
 18 21  1  0  0  0  0 
  3  4  2  0  0  0  0 
 21 22  2  0  0  0  0 
  9 10  1  0  0  0  0 
 22 23  1  0  0  0  0 
 11 24  1  0  0  0  0 
 10 11  2  0  0  0  0 
 24 25  2  0  0  0  0 
  4  5  1  0  0  0  0 
 25 26  1  0  0  0  0 
 11 12  1  0  0  0  0 
  1  2  2  0  0  0  0 
M  CHG  1   8   1
M  CHG  1  15   1
M  CHG  1  27  -1
M  CHG  1  28  -1
M  END