
          11280715002D 1   1.00000     0.00000     0

 36 39  0     0  0            999 V2000
    2.4167   -2.7792    0.0000 C   0  0  0  0  0  0           0  0  0
    2.4167   -3.6042    0.0000 C   0  0  0  0  0  0           0  0  0
    1.7000   -4.0167    0.0000 N   0  0  3  0  0  0           0  0  0
    1.7000   -2.3625    0.0000 C   0  0  0  0  0  0           0  0  0
    0.9875   -2.7792    0.0000 C   0  0  0  0  0  0           0  0  0
    0.9792   -3.6042    0.0000 C   0  0  0  0  0  0           0  0  0
    1.6917   -4.8417    0.0000 C   0  0  0  0  0  0           0  0  0
    3.1292   -2.3667    0.0000 C   0  0  0  0  0  0           0  0  0
    2.4042   -5.2542    0.0000 C   0  0  0  0  0  0           0  0  0
    1.7000   -1.5417    0.0000 C   0  0  0  0  0  0           0  0  0
    0.2667   -4.0167    0.0000 C   0  0  0  0  0  0           0  0  0
    3.1292   -4.0167    0.0000 O   0  0  0  0  0  0           0  0  0
    0.2667   -2.3667    0.0000 C   0  0  0  0  0  0           0  0  0
    2.4042   -6.0792    0.0000 C   0  0  0  0  0  0           0  0  0
    3.1167   -4.8417    0.0000 C   0  0  0  0  0  0           0  0  0
    3.1292   -1.5417    0.0000 O   0  0  0  0  0  0           0  0  0
    2.4167   -1.1292    0.0000 C   0  0  0  0  0  0           0  0  0
    0.9792   -1.1292    0.0000 C   0  0  0  0  0  0           0  0  0
    3.1167   -6.4917    0.0000 C   0  0  0  0  0  0           0  0  0
   -0.4458   -2.7792    0.0000 C   0  0  0  0  0  0           0  0  0
    3.8292   -5.2542    0.0000 C   0  0  0  0  0  0           0  0  0
    3.8417   -2.7792    0.0000 O   0  0  0  0  0  0           0  0  0
   -0.4458   -3.6042    0.0000 C   0  0  0  0  0  0           0  0  0
    1.7042    0.1083    0.0000 C   0  0  0  0  0  0           0  0  0
    3.8292   -6.0875    0.0000 C   0  0  0  0  0  0           0  0  0
    2.4125   -0.3042    0.0000 C   0  0  0  0  0  0           0  0  0
    0.9875   -0.3042    0.0000 C   0  0  0  0  0  0           0  0  0
    1.6917   -6.4917    0.0000 O   0  0  0  0  0  0           0  0  0
    4.5500   -4.8417    0.0000 O   0  0  0  0  0  0           0  0  0
   -1.1583   -2.3667    0.0000 O   0  0  0  0  0  0           0  0  0
    1.7000    0.9333    0.0000 O   0  0  0  0  0  0           0  0  0
   -1.1583   -1.5417    0.0000 C   0  0  0  0  0  0           0  0  0
    0.9750   -6.0792    0.0000 C   0  0  0  0  0  0           0  0  0
    2.4167    1.3458    0.0000 C   0  0  0  0  0  0           0  0  0
    5.2625   -5.2542    0.0000 C   0  0  0  0  0  0           0  0  0
   -1.8708   -1.1292    0.0000 C   0  0  0  0  0  0           0  0  0
  2  1  1  0     0  0
  3  2  1  0     0  0
  4  1  2  0     0  0
  5  4  1  0     0  0
  6  5  1  0     0  0
  7  3  1  0     0  0
  8  1  1  0     0  0
  9  7  1  0     0  0
 10  4  1  0     0  0
 11  6  2  0     0  0
 12  2  2  0     0  0
 13  5  2  0     0  0
 14  9  2  0     0  0
 15  9  1  0     0  0
 16  8  2  0     0  0
 17 10  2  0     0  0
 18 10  1  0     0  0
 19 14  1  0     0  0
 20 13  1  0     0  0
 21 15  2  0     0  0
 22  8  1  0     0  0
 23 20  2  0     0  0
 24 27  1  0     0  0
 25 21  1  0     0  0
 26 17  1  0     0  0
 27 18  2  0     0  0
 28 14  1  0     0  0
 29 21  1  0     0  0
 30 20  1  0     0  0
 31 24  1  0     0  0
 32 30  1  0     0  0
 33 28  1  0     0  0
 34 31  1  0     0  0
 35 29  1  0     0  0
 36 32  1  0     0  0
  3  6  1  0     0  0
 26 24  2  0     0  0
 11 23  1  0     0  0
 25 19  2  0     0  0
M  END