
  SciTegic01091216402D

 24 26  0  0  0  0            999 V2000
    7.9599   -5.5120    0.0000 N   0  0
    7.9447   -6.3391    0.0000 N   0  0
    8.7227   -6.6061    0.0000 C   0  0
    9.2203   -5.9481    0.0000 C   0  0
    8.7475   -5.2726    0.0000 C   0  0
    7.2322   -5.1242    0.0000 C   0  0
    6.5314   -5.5629    0.0000 N   0  0
    7.2021   -4.3030    0.0000 N   0  0
   10.0434   -5.9638    0.0000 C   0  0
   10.4442   -6.6860    0.0000 C   0  0
    7.9029   -3.8644    0.0000 C   0  0
    8.6312   -4.2521    0.0000 C   0  0
    5.8080   -5.1690    0.0000 S   0  0
    6.1907   -4.4469    0.0000 O   0  0
    3.0767   -5.7649    0.0000 S   0  0
    3.8548   -6.0338    0.0000 C   0  0
    4.3536   -5.3726    0.0000 N   0  0
    3.8811   -4.6963    0.0000 C   0  0
    3.0927   -4.9377    0.0000 C   0  0
    4.3280   -6.7061    0.0000 N   0  0
    5.1156   -6.4687    0.0000 C   0  0
    5.1316   -5.6415    0.0000 C   0  0
    5.7775   -6.9633    0.0000 Cl  0  0
    5.2207   -4.5795    0.0000 O   0  0
  1  2  1  0
  2  3  2  0
  3  4  1  0
  4  5  1  0
  1  5  1  0
  6  7  2  0
  6  8  1  0
  1  6  1  0
  9 10  1  0
  4  9  1  0
 11 12  1  0
  8 11  1  0
 13 14  2  0
 15 16  1  0
 16 17  1  0
 17 18  1  0
 18 19  2  0
 15 19  1  0
 20 21  1  0
 21 22  2  0
 16 20  2  0
 17 22  1  0
 13 22  1  0
 21 23  1  0
  7 13  1  0
 13 24  2  0
M  END