
          11280714502D 1   1.00000     0.00000     0

 24 25  0     0  0            999 V2000
    0.4250   -1.1542    0.0000 N   0  0  3  0  0  0           0  0  0
    0.0667   -0.2542    0.0000 N   0  0  0  0  0  0           0  0  0
    0.8917   -0.7792    0.0000 C   0  0  0  0  0  0           0  0  0
    0.6750   -0.2167    0.0000 C   0  0  0  0  0  0           0  0  0
   -0.0833   -0.8292    0.0000 C   0  0  0  0  0  0           0  0  0
    1.4750   -0.9292    0.0000 C   0  0  0  0  0  0           0  0  0
    2.5917   -2.8417    0.0000 C   0  0  0  0  0  0           0  0  0
    1.8917   -0.5042    0.0000 C   0  0  0  0  0  0           0  0  0
    0.4542   -1.7542    0.0000 C   0  0  0  0  0  0           0  0  0
    2.0542   -2.5667    0.0000 C   0  0  0  0  0  0           0  0  0
    1.0000    0.2833    0.0000 Cl  0  0  0  0  0  0           0  0  0
    2.6250   -3.4417    0.0000 O   0  0  0  0  0  0           0  0  0
    1.7417    0.0708    0.0000 O   0  0  0  0  0  0           0  0  0
    1.5542   -2.9000    0.0000 C   0  0  0  0  0  0           0  0  0
    2.0250   -1.9667    0.0000 C   0  0  0  0  0  0           0  0  0
    0.9917   -2.0292    0.0000 C   0  0  0  0  0  0           0  0  0
    3.0917   -2.5125    0.0000 O   0  0  0  0  0  0           0  0  0
   -0.6458   -1.0500    0.0000 C   0  0  0  0  0  0           0  0  0
    2.4750   -0.6625    0.0000 O   0  0  0  0  0  0           0  0  0
    1.4875   -1.7000    0.0000 C   0  0  0  0  0  0           0  0  0
    1.0167   -2.6292    0.0000 C   0  0  0  0  0  0           0  0  0
   -1.1083   -0.6750    0.0000 C   0  0  0  0  0  0           0  0  0
   -1.6708   -0.8917    0.0000 C   0  0  0  0  0  0           0  0  0
   -2.1333   -0.5167    0.0000 C   0  0  0  0  0  0           0  0  0
  2  5  2  0     0  0
  3  1  1  0     0  0
  4  3  2  0     0  0
  5  1  1  0     0  0
  6  3  1  0     0  0
  7 10  1  0     0  0
  8  6  1  0     0  0
  9  1  1  0     0  0
 10 14  2  0     0  0
 11  4  1  0     0  0
 12  7  2  0     0  0
 13  8  2  0     0  0
 14 21  1  0     0  0
 15 20  2  0     0  0
 16  9  1  0     0  0
 17  7  1  0     0  0
 18  5  1  0     0  0
 19  8  1  0     0  0
 20 16  1  0     0  0
 21 16  2  0     0  0
 22 18  1  0     0  0
 23 22  1  0     0  0
 24 23  1  0     0  0
  4  2  1  0     0  0
 15 10  1  0     0  0
M  END