
  SciTegic07111213592D

 25 27  0  0  0  0            999 V2000
   11.6667   -4.0917    0.0000 C   0  0
   11.6667   -4.9167    0.0000 C   0  0
   12.3787   -5.3250    0.0000 C   0  0
   13.0907   -4.9167    0.0000 N   0  0
   13.0907   -4.0917    0.0000 C   0  0
   12.3787   -3.6750    0.0000 C   0  0
   10.9542   -3.6833    0.0000 C   0  0
   10.2417   -4.0958    0.0000 N   0  0
    9.5292   -3.6875    0.0000 C   0  0
    9.4407   -2.8710    0.0000 N   0  0
    8.6369   -2.7029    0.0000 C   0  0
    8.2286   -3.4154    0.0000 C   0  0
    8.7800   -4.0239    0.0000 S   0  0
    7.4042   -3.4125    0.0000 S   0  0
    6.9917   -4.1250    0.0000 C   0  0
    6.1708   -4.1250    0.0000 C   0  0
    5.6892   -3.4599    0.0000 O   0  0
    4.9076   -3.7137    0.0000 C   0  0
    4.9089   -4.5357    0.0000 C   0  0
    5.6913   -4.7871    0.0000 N   0  0
    4.2399   -3.2292    0.0000 C   0  0
    4.2333   -2.4042    0.0000 C   0  0
    4.9500   -2.8125    0.0000 C   0  0
    3.5208   -3.6375    0.0000 C   0  0
   10.9524   -2.8583    0.0000 O   0  0
 11 12  2  0
 13  9  1  0
 12 14  1  0
  1  7  1  0
 14 15  1  0
  1  2  1  0
 15 16  1  0
 17 18  1  0
  7  8  1  0
  1  6  1  0
  8  9  1  0
 12 13  1  0
 16 17  1  0
 18 19  2  0
 19 20  1  0
 20 16  2  0
  2  3  1  0
 18 21  1  0
 10 11  1  0
 21 22  1  0
  3  4  1  0
 21 23  1  0
  4  5  1  0
 21 24  1  0
  5  6  1  0
  7 25  2  0
  9 10  2  0
M  END