
  SciTegic05071317052D

 28 28  0  0  0  0            999 V2000
   12.4400   -4.0980    0.0000 C   0  0
   13.2639   -4.0887    0.0000 C   0  0
   13.6636   -3.3679    0.0000 C   0  0
   13.2385   -2.6598    0.0000 C   0  0
   12.4093   -2.6772    0.0000 C   0  0
   12.0134   -3.3986    0.0000 C   0  0
    9.7126   -9.4959    0.0000 C   0  0
    9.7126  -10.3209    0.0000 C   0  0
   10.4245  -10.7292    0.0000 N   0  0
   11.1366  -10.3209    0.0000 C   0  0
   11.1366   -9.4959    0.0000 C   0  0
   10.4245   -9.0792    0.0000 N   0  0
   10.4250   -8.2540    0.0000 C   0  0
   11.0925   -7.7690    0.0000 N   0  0
   10.8375   -6.9838    0.0000 C   0  0
   10.0124   -6.9844    0.0000 C   0  0
    9.7576   -7.7690    0.0000 S   0  0
   11.2373   -6.2622    0.0000 C   0  0
   12.0622   -6.2476    0.0000 C   0  0
   12.4619   -5.5258    0.0000 N   0  0
   13.2868   -5.5112    0.0000 C   0  0
   12.0368   -4.8188    0.0000 C   0  0
   10.4245  -11.5542    0.0000 C   0  0
    9.7101  -11.9667    0.0000 C   0  0
    9.7101  -12.7918    0.0000 C   0  0
   11.2120   -4.8318    0.0000 O   0  0
    8.1812   -5.4292    0.0000 Br  0  0
    8.0438   -6.7768    0.0000 Br  0  0
  1  2  2  0
  2  3  1  0
  3  4  2  0
  4  5  1  0
  5  6  2  0
  6  1  1  0
  7  8  1  0
  7 12  1  0
  8  9  1  0
  9 10  1  0
 10 11  1  0
 11 12  1  0
 13 14  2  0
 14 15  1  0
 15 16  2  0
 16 17  1  0
 17 13  1  0
 12 13  1  0
 15 18  1  0
 18 19  1  0
 19 20  1  0
 20 21  1  0
 20 22  1  0
  9 23  1  0
 23 24  1  0
 24 25  1  0
 22  1  1  0
 22 26  2  0
M  END