
  SciTegic09261414462D

168179  0  0  0  0            999 V2000
   25.0426  -14.3861    0.0000 C   0  0  2  0  0  0
   31.2947   -8.0815    0.0000 N   0  0
   27.8647  -13.5007    0.0000 O   0  0
   25.7264  -13.1338    0.0000 O   0  0
   26.4546  -13.5281    0.0000 H   0  0
   26.4014  -10.2644    0.0000 O   0  0
   27.8205  -11.8491    0.0000 C   0  0  1  0  0  0
   32.0548  -10.1091    0.0000 C   0  0  2  0  0  0
   29.8954   -8.9376    0.0000 O   0  0
   32.7790  -10.4978    0.0000 O   0  0
   24.9787  -10.2567    0.0000 C   0  0
   31.9723   -6.8344    0.0000 C   0  0
   27.1430  -13.1029    0.0000 O   0  0
   28.5035  -10.6177    0.0000 O   0  0
   25.6807  -11.4942    0.0000 N   0  0
   31.9931   -7.6524    0.0000 C   0  0
   24.3559  -15.6246    0.0000 O   0  0
   24.3252  -13.9897    0.0000 O   0  0
   27.0515   -8.9987    0.0000 O   0  0
   25.7959  -16.4272    0.0000 O   0  0
   30.6314  -10.1497    0.0000 O   0  0
   28.5664  -13.0591    0.0000 C   0  0
   25.0570  -15.2000    0.0000 C   0  0  1  0  0  0
   30.6794  -11.7907    0.0000 O   0  0
   28.4707   -8.9740    0.0000 C   0  0  1  0  0  0
   27.8057  -11.0332    0.0000 H   0  0
   27.8421  -12.6710    0.0000 C   0  0  2  0  0  0
   28.5869  -13.8791    0.0000 O   0  0
   29.9433  -11.4012    0.0000 O   0  0
   26.4257  -12.7063    0.0000 C   0  0  2  0  0  0
   31.3515  -10.5408    0.0000 C   0  0  2  0  0  0
   30.6142   -9.3317    0.0000 C   0  0  2  0  0  0
   31.3796  -11.3606    0.0000 C   0  0
   32.7124   -8.0454    0.0000 O   0  0
   27.7882  -10.2173    0.0000 C   0  0  1  0  0  0
   25.7744  -15.5964    0.0000 C   0  0  1  0  0  0
   26.4042  -11.8884    0.0000 C   0  0  1  0  0  0
   32.0305   -9.2914    0.0000 C   0  0  1  0  0  0
   28.5215  -11.4204    0.0000 O   0  0
   30.6453  -10.9811    0.0000 O   0  0
   25.7402  -13.9569    0.0000 C   0  0  2  0  0  0
   26.4593  -14.3549    0.0000 C   0  0  1  0  0  0
   28.4546   -8.1503    0.0000 O   0  0
   25.6881  -10.6726    0.0000 C   0  0
   29.9271  -10.5812    0.0000 C   0  0
   27.0819  -10.6429    0.0000 O   0  0
   27.8827  -14.3198    0.0000 O   0  0
   27.1641  -13.9255    0.0000 C   0  0
   29.1893   -9.3637    0.0000 C   0  0  1  0  0  0
   31.3119   -8.9015    0.0000 C   0  0  1  0  0  0
   27.0999  -11.4630    0.0000 C   0  0  1  0  0  0
   32.7320   -8.8634    0.0000 O   0  0
   29.2046  -10.1895    0.0000 C   0  0  2  0  0  0
   26.4810  -15.1769    0.0000 O   0  0
   27.7708   -9.3994    0.0000 C   0  0  2  0  0  0
   29.9167   -9.7660    0.0000 H   0  0
   34.3819  -20.4241    0.0000 C   0  0  2  0  0  0
   25.8225  -18.0569    0.0000 N   0  0
   32.2269  -18.3982    0.0000 O   0  0
   32.9553  -20.4419    0.0000 O   0  0
   32.9420  -19.6138    0.0000 H   0  0
   32.3070  -22.4874    0.0000 O   0  0
   30.8090  -19.2462    0.0000 C   0  0  1  0  0  0
   27.2168  -16.4084    0.0000 C   0  0  2  0  0  0
   27.2542  -18.8649    0.0000 O   0  0
   27.2007  -15.5867    0.0000 O   0  0
   32.9706  -21.2289    0.0000 C   0  0
   26.4964  -19.3060    0.0000 C   0  0
   32.2339  -19.2222    0.0000 O   0  0
   29.4009  -19.2546    0.0000 O   0  0
   31.5487  -21.2804    0.0000 N   0  0
   25.8000  -18.8763    0.0000 C   0  0
   35.7980  -20.4155    0.0000 O   0  0
   34.3881  -21.2437    0.0000 O   0  0
   28.7015  -21.3137    0.0000 O   0  0
   35.7927  -18.7661    0.0000 O   0  0
   27.9499  -17.6293    0.0000 O   0  0
   31.4981  -18.0030    0.0000 C   0  0
   35.0843  -20.0126    0.0000 C   0  0  1  0  0  0
   29.3568  -16.7830    0.0000 O   0  0
   27.9843  -20.0889    0.0000 C   0  0  1  0  0  0
   30.1051  -19.6591    0.0000 H   0  0
   31.5149  -18.8246    0.0000 C   0  0  2  0  0  0
   32.2027  -17.5832    0.0000 O   0  0
   29.3781  -17.6155    0.0000 O   0  0
   32.2398  -20.0419    0.0000 C   0  0  2  0  0  0
   27.9379  -16.8099    0.0000 C   0  0  2  0  0  0
   27.2454  -18.0452    0.0000 C   0  0  2  0  0  0
   28.6386  -16.3836    0.0000 C   0  0
   25.0778  -19.2638    0.0000 O   0  0
   29.4025  -20.0743    0.0000 C   0  0  1  0  0  0
   35.0782  -19.1930    0.0000 C   0  0  1  0  0  0
   31.5375  -20.4616    0.0000 C   0  0  1  0  0  0
   26.5160  -16.8304    0.0000 C   0  0  1  0  0  0
   30.0917  -18.8454    0.0000 O   0  0
   28.6678  -17.2096    0.0000 O   0  0
   33.6659  -20.0263    0.0000 C   0  0  2  0  0  0
   33.6604  -19.2045    0.0000 C   0  0  1  0  0  0
   27.2742  -20.5066    0.0000 O   0  0
   32.2742  -21.6662    0.0000 C   0  0
   28.6713  -18.0316    0.0000 C   0  0
   30.1197  -20.4814    0.0000 O   0  0
   32.9321  -17.9811    0.0000 O   0  0
   32.9406  -18.8007    0.0000 C   0  0
   27.9718  -19.2715    0.0000 C   0  0  1  0  0  0
   26.5284  -17.6479    0.0000 C   0  0  1  0  0  0
   30.8257  -20.0636    0.0000 C   0  0  1  0  0  0
   28.6840  -18.8533    0.0000 C   0  0  2  0  0  0
   34.3662  -18.7827    0.0000 O   0  0
   28.6982  -20.4904    0.0000 C   0  0  2  0  0  0
   27.9658  -18.4402    0.0000 H   0  0
   35.1765   -9.3192    0.0000 C   0  0  2  0  0  0
   37.2176  -17.9604    0.0000 N   0  0
   34.4344  -12.1823    0.0000 O   0  0
   35.8772  -10.5620    0.0000 O   0  0
   35.1572  -10.9713    0.0000 H   0  0
   37.9828  -10.1483    0.0000 O   0  0
   35.8591  -13.0188    0.0000 C   0  0  1  0  0  0
   35.0950  -17.5324    0.0000 C   0  0  2  0  0  0
   37.2317  -16.3200    0.0000 O   0  0
   34.3819  -17.9412    0.0000 O   0  0
   36.5602  -10.1707    0.0000 C   0  0
   37.9173  -19.1952    0.0000 C   0  0
   35.1538  -11.7805    0.0000 O   0  0
   36.5426  -14.2499    0.0000 O   0  0
   37.2881  -11.3931    0.0000 N   0  0
   37.2121  -18.7800    0.0000 C   0  0
   34.4889   -8.0812    0.0000 O   0  0
   35.8924   -8.9202    0.0000 O   0  0
   38.6847  -13.8746    0.0000 O   0  0
   35.8138  -16.3031    0.0000 O   0  0
   34.4377  -13.0114    0.0000 C   0  0
   34.4782   -8.9007    0.0000 C   0  0  1  0  0  0
   34.3959  -15.4755    0.0000 O   0  0
   37.9547  -15.0918    0.0000 C   0  0  1  0  0  0
   36.5592  -13.4380    0.0000 H   0  0
   35.1503  -12.6021    0.0000 C   0  0  2  0  0  0
   33.7311  -12.5949    0.0000 O   0  0
   35.1159  -15.0570    0.0000 O   0  0
   35.8699  -11.3816    0.0000 C   0  0  2  0  0  0
   35.1008  -16.7072    0.0000 C   0  0  2  0  0  0
   36.5170  -16.7214    0.0000 C   0  0  2  0  0  0
   34.3904  -16.2972    0.0000 C   0  0
   36.4980  -19.1824    0.0000 O   0  0
   37.2608  -13.8548    0.0000 C   0  0  1  0  0  0
   33.7622   -9.2997    0.0000 C   0  0  1  0  0  0
   36.5753  -11.7962    0.0000 C   0  0  1  0  0  0
   35.8016  -17.9445    0.0000 C   0  0  1  0  0  0
   35.8520  -13.8404    0.0000 O   0  0
   35.1009  -15.8750    0.0000 O   0  0
   35.1714  -10.1382    0.0000 C   0  0  2  0  0  0
   34.4532  -10.5377    0.0000 C   0  0  1  0  0  0
   38.6621  -15.5141    0.0000 O   0  0
   37.2782  -10.5714    0.0000 C   0  0
   35.8203  -15.4771    0.0000 C   0  0
   37.2735  -13.0303    0.0000 O   0  0
   33.7298  -11.7641    0.0000 O   0  0
   34.4446  -11.3630    0.0000 C   0  0
   37.2438  -15.4953    0.0000 C   0  0  1  0  0  0
   36.5127  -17.5411    0.0000 C   0  0  1  0  0  0
   36.5681  -12.6116    0.0000 C   0  0  1  0  0  0
   36.5350  -15.0714    0.0000 C   0  0  2  0  0  0
   33.7443  -10.1213    0.0000 O   0  0
   37.9641  -14.2728    0.0000 C   0  0  2  0  0  0
   36.5175  -15.8997    0.0000 H   0  0
   35.0732  -18.3744    0.0000 H   0  0
   33.7566   -8.4815    0.0000 O   0  0
   26.5876  -15.5927    0.0000 H   0  0
 25 55  1  0
 53 49  1  0
 35 46  1  0
 32 56  1  6
 41  1  1  0
  7 39  1  6
 51 46  1  1
 37 30  1  0
 27  7  1  0
 36 20  1  0
 31 21  1  0
 27 22  1  1
 44 11  1  0
  1 23  1  0
 35 14  1  0
 32 21  1  0
 42 48  1  1
 49  9  1  6
  8 38  1  0
 42 54  1  0
 44  6  2  0
 38 50  1  0
 48  3  2  0
 25 43  1  1
 31  8  1  0
 38 52  1  1
 30  5  1  6
 55 35  1  0
 30  4  1  0
  2 16  1  0
 37 15  1  6
 45 40  2  0
 41  4  1  6
 51 37  1  0
 36 54  1  0
 55 19  1  6
  8 10  1  6
 42 41  1  0
 48 47  1  0
 53 14  1  0
 35 26  1  6
 23 36  1  0
 30 13  1  0
 50 32  1  0
  7 51  1  0
 16 12  1  0
 16 34  2  0
 27 13  1  0
 45 29  1  0
 49 25  1  0
 53 45  1  1
  1 18  1  1
 31 33  1  1
 15 44  1  0
 23 17  1  6
 32  9  1  0
 22 28  1  0
 50  2  1  6
 33 24  1  0
 81110  1  0
108105  1  0
 91102  1  0
 88111  1  6
 97 57  1  0
 63 95  1  6
107102  1  1
 93 86  1  0
 83 63  1  0
 92 76  1  0
 87 77  1  0
 83 78  1  1
100 67  1  0
 57 79  1  0
 91 70  1  0
 88 77  1  0
 98104  1  1
105 65  1  6
 64 94  1  0
 98109  1  0
100 62  2  0
 94106  1  0
104 59  2  0
 81 99  1  1
 87 64  1  0
 94 20  1  1
 86 61  1  6
110 91  1  0
 86 60  1  0
 58 72  1  0
 93 71  1  6
101 96  2  0
 97 60  1  6
107 93  1  0
 92109  1  0
110 75  1  6
 64 66  1  6
 98 97  1  0
104103  1  0
108 70  1  0
 91 82  1  6
 79 92  1  0
 86 69  1  0
106 88  1  0
 63107  1  0
 72 68  1  0
 72 90  2  0
 83 69  1  0
101 85  1  0
105 81  1  0
108101  1  1
 57 74  1  1
 87 89  1  1
 71100  1  0
 79 73  1  6
 88 65  1  0
 78 84  1  0
106 58  1  6
 89 80  1  0
135164  1  0
162159  1  0
145156  1  0
142165  1  6
151112  1  0
118149  1  6
161156  1  1
147140  1  0
137118  1  0
141131  1  0
137132  1  1
154122  1  0
112133  1  0
145125  1  0
142131  1  0
152158  1  1
159120  1  6
119148  1  0
152163  1  0
154117  2  0
148160  1  0
158114  2  0
135153  1  1
141119  1  0
148 76  1  1
140116  1  6
164145  1  0
140115  1  0
113127  1  0
147126  1  6
155150  2  0
151115  1  6
161147  1  0
146163  1  0
164130  1  6
119121  1  6
152151  1  0
158157  1  0
162125  1  0
145136  1  6
133146  1  0
140124  1  0
160142  1  0
118161  1  0
127123  1  0
127144  2  0
137124  1  0
155139  1  0
159135  1  0
162155  1  1
112129  1  1
141143  1  1
126154  1  0
133128  1  6
142120  1  0
132138  1  0
160113  1  6
143134  1  0
 92166  1  6
146167  1  1
 36168  1  6
M  END