
  SciTegic04091416292D

 32 35  0  0  0  0            999 V2000
   12.5908   -6.7893    0.0000 C   0  0
   12.5896   -7.6088    0.0000 C   0  0
   13.2977   -8.0178    0.0000 N   0  0
   14.0073   -7.6083    0.0000 C   0  0
   14.0045   -6.7857    0.0000 N   0  0
   13.2959   -6.3804    0.0000 C   0  0
   13.2934   -5.5632    0.0000 N   0  0
   13.9999   -5.1525    0.0000 C   0  0
   14.7460   -5.4849    0.0000 C   0  0
   15.2910   -4.8760    0.0000 C   0  0
   14.8802   -4.1694    0.0000 N   0  0
   14.0815   -4.3418    0.0000 N   0  0
   14.7157   -8.0158    0.0000 N   0  0
   14.7169   -8.8330    0.0000 C   0  0
   15.4253   -9.2405    0.0000 C   0  0
   15.5159  -10.0506    0.0000 O   0  0
   16.3155  -10.2192    0.0000 N   0  0
   16.7230   -9.5108    0.0000 C   0  0
   16.1751   -8.9045    0.0000 C   0  0
   17.5355   -9.4240    0.0000 C   0  0
   16.1083   -4.8768    0.0000 C   0  0
   16.5179   -4.1696    0.0000 C   0  0
   17.3351   -4.1708    0.0000 C   0  0
   17.7415   -4.8805    0.0000 C   0  0
   18.5579   -4.8821    0.0000 C   0  0
   18.9684   -4.1744    0.0000 C   0  0
   18.5564   -3.4638    0.0000 C   0  0
   17.7413   -3.4657    0.0000 C   0  0
   18.9635   -2.7552    0.0000 O   0  0
   18.5534   -2.0483    0.0000 C   0  0
   19.7856   -4.1745    0.0000 O   0  0
   20.1941   -4.8822    0.0000 C   0  0
  1  2  2  0
  2  3  1  0
  3  4  2  0
  4  5  1  0
  5  6  2  0
  6  1  1  0
  6  7  1  0
  7  8  1  0
  8  9  1  0
  9 10  2  0
 10 11  1  0
 11 12  1  0
 12  8  2  0
  4 13  1  0
 13 14  1  0
 14 15  1  0
 15 16  1  0
 16 17  1  0
 17 18  2  0
 18 19  1  0
 19 15  2  0
 18 20  1  0
 10 21  1  0
 21 22  1  0
 22 23  1  0
 23 24  2  0
 24 25  1  0
 25 26  2  0
 26 27  1  0
 27 28  2  0
 28 23  1  0
 27 29  1  0
 29 30  1  0
 26 31  1  0
 31 32  1  0
M  END