
          11280715122D 1   1.00000     0.00000     0

 30 32  0     1  0            999 V2000
    4.5667   -4.0375    0.0000 N   0  0  3  0  0  0           0  0  0
    5.3667   -3.8542    0.0000 C   0  0  0  0  0  0           0  0  0
    5.7292   -3.1042    0.0000 C   0  0  1  0  0  0           0  0  0
    3.9292   -3.5250    0.0000 C   0  0  0  0  0  0           0  0  0
    3.9292   -2.7000    0.0000 C   0  0  0  0  0  0           0  0  0
    5.3667   -2.3750    0.0000 C   0  0  1  0  0  0           0  0  0
    4.5667   -2.1875    0.0000 C   0  0  0  0  0  0           0  0  0
    4.3875   -4.8500    0.0000 C   0  0  0  0  0  0           0  0  0
    6.5542   -3.1000    0.0000 O   0  0  0  0  0  0           0  0  0
    3.2167   -3.9375    0.0000 C   0  0  0  0  0  0           0  0  0
    6.9667   -3.8042    0.0000 C   0  0  0  0  0  0           0  0  0
    5.9292   -1.7667    0.0000 C   0  0  0  0  0  0           0  0  0
    5.8792   -4.5042    0.0000 O   0  0  0  0  0  0           0  0  0
    3.2167   -2.2875    0.0000 C   0  0  0  0  0  0           0  0  0
    7.8000   -3.8000    0.0000 O   0  0  0  0  0  0           0  0  0
    5.6875   -0.9792    0.0000 C   0  0  0  0  0  0           0  0  0
    6.7292   -1.9542    0.0000 C   0  0  0  0  0  0           0  0  0
    2.5000   -2.7000    0.0000 C   0  0  0  0  0  0           0  0  0
    5.0000   -5.4042    0.0000 C   0  0  0  0  0  0           0  0  0
    4.8250   -6.2042    0.0000 N   0  0  3  0  0  0           0  0  0
    2.5000   -3.5250    0.0000 C   0  0  0  0  0  0           0  0  0
    7.0417   -0.5625    0.0000 C   0  0  0  0  0  0           0  0  0
    7.2917   -1.3500    0.0000 C   0  0  0  0  0  0           0  0  0
    6.2500   -0.3792    0.0000 C   0  0  0  0  0  0           0  0  0
    1.7792   -2.2875    0.0000 Cl  0  0  0  0  0  0           0  0  0
    7.6000    0.0500    0.0000 O   0  0  0  0  0  0           0  0  0
    6.5625   -4.5292    0.0000 C   0  0  0  0  0  0           0  0  0
    4.0375   -6.4625    0.0000 C   0  0  0  0  0  0           0  0  0
    5.4292   -6.7625    0.0000 C   0  0  0  0  0  0           0  0  0
    7.3417    0.8333    0.0000 C   0  0  0  0  0  0           0  0  0
  2  1  1  0     0  0
  3  2  1  0     0  0
  4  1  1  0     0  0
  5  4  1  0     0  0
  6  3  1  0     0  0
  7  5  1  0     0  0
  8  1  1  0     0  0
  3  9  1  1     0  0
 10  4  2  0     0  0
 11  9  1  0     0  0
  6 12  1  1     0  0
 13  2  2  0     0  0
 14  5  2  0     0  0
 15 11  2  0     0  0
 16 12  1  0     0  0
 17 12  2  0     0  0
 18 21  2  0     0  0
 19  8  1  0     0  0
 20 19  1  0     0  0
 21 10  1  0     0  0
 22 23  2  0     0  0
 23 17  1  0     0  0
 24 16  2  0     0  0
 25 18  1  0     0  0
 26 22  1  0     0  0
 27 11  1  0     0  0
 28 20  1  0     0  0
 29 20  1  0     0  0
 30 26  1  0     0  0
  6  7  1  0     0  0
 14 18  1  0     0  0
 22 24  1  0     0  0
M  END