
          11280714572D 1   1.00000     0.00000     0

 15 16  0     0  0            999 V2000
   -1.8333   -3.4500    0.0000 N   0  0  0  0  0  0           0  0  0
   -2.7458   -3.1125    0.0000 N   0  0  0  0  0  0           0  0  0
   -2.4083   -3.6042    0.0000 C   0  0  0  0  0  0           0  0  0
   -1.8125   -2.8500    0.0000 C   0  0  0  0  0  0           0  0  0
   -2.3708   -2.6417    0.0000 C   0  0  0  0  0  0           0  0  0
    0.7667   -2.5250    0.0000 C   0  0  0  0  0  0           0  0  0
   -1.2958   -2.5375    0.0000 C   0  0  0  0  0  0           0  0  0
    0.2542   -2.8292    0.0000 C   0  0  0  0  0  0           0  0  0
    0.7667   -1.9375    0.0000 C   0  0  0  0  0  0           0  0  0
    1.2875   -2.8250    0.0000 C   0  0  0  0  0  0           0  0  0
   -0.7833   -2.8375    0.0000 C   0  0  0  0  0  0           0  0  0
   -0.2625   -2.5375    0.0000 C   0  0  0  0  0  0           0  0  0
    1.8042   -2.5292    0.0000 C   0  0  0  0  0  0           0  0  0
    1.2875   -1.6375    0.0000 C   0  0  0  0  0  0           0  0  0
    1.8042   -1.9375    0.0000 C   0  0  0  0  0  0           0  0  0
  2  3  1  0     0  0
  3  1  2  0     0  0
  4  1  1  0     0  0
  5  4  2  0     0  0
  6  8  1  0     0  0
  7  4  1  0     0  0
  8 12  1  0     0  0
  9  6  1  0     0  0
 10  6  2  0     0  0
 11  7  1  0     0  0
 12 11  1  0     0  0
 13 10  1  0     0  0
 14  9  2  0     0  0
 15 13  2  0     0  0
  5  2  1  0     0  0
 15 14  1  0     0  0
M  END