
          11280715362D 1   1.00000     0.00000     0

 21 22  0     1  0            999 V2000
    3.6167   -4.6625    0.0000 C   0  0  1  0  0  0           0  0  0
    2.9042   -5.0667    0.0000 O   0  0  0  0  0  0           0  0  0
    8.7292   -3.8292    0.0000 C   0  0  0  0  0  0           0  0  0
    3.6250   -3.8375    0.0000 C   0  0  1  0  0  0           0  0  0
    2.1917   -3.8292    0.0000 O   0  0  0  0  0  0           0  0  0
    9.4417   -3.4125    0.0000 O   0  0  0  0  0  0           0  0  0
    4.3292   -5.0750    0.0000 C   0  0  0  0  0  0           0  0  0
    2.1917   -4.6542    0.0000 C   0  0  0  0  0  0           0  0  0
    5.0542   -3.8417    0.0000 C   0  0  0  0  0  0           0  0  0
    5.8792   -3.8417    0.0000 C   0  0  0  0  0  0           0  0  0
    8.7417   -4.6542    0.0000 O   0  0  0  0  0  0           0  0  0
    2.9125   -3.4167    0.0000 C   0  0  0  0  0  0           0  0  0
    4.3417   -3.4292    0.0000 C   0  0  0  0  0  0           0  0  0
    8.0167   -3.4167    0.0000 C   0  0  0  0  0  0           0  0  0
    6.5917   -3.4292    0.0000 C   0  0  0  0  0  0           0  0  0
    4.3292   -5.8917    0.0000 C   0  0  0  0  0  0           0  0  0
    5.0375   -4.6625    0.0000 C   0  0  0  0  0  0           0  0  0
    7.3042   -3.8375    0.0000 C   0  0  0  0  0  0           0  0  0
    5.7500   -5.0667    0.0000 C   0  0  0  0  0  0           0  0  0
    5.0417   -6.3042    0.0000 C   0  0  0  0  0  0           0  0  0
    5.7542   -5.8917    0.0000 C   0  0  0  0  0  0           0  0  0
  2  1  1  0     0  0
  3 14  1  0     0  0
  4  1  1  0     0  0
  5 12  1  0     0  0
  6  3  2  0     0  0
  1  7  1  1     0  0
  8  2  1  0     0  0
  9 13  1  0     0  0
 10  9  2  0     0  0
 11  3  1  0     0  0
 12  4  1  0     0  0
  4 13  1  1     0  0
 14 18  1  0     0  0
 15 10  1  0     0  0
 16  7  2  0     0  0
 17  7  1  0     0  0
 18 15  1  0     0  0
 19 17  2  0     0  0
 20 16  1  0     0  0
 21 19  1  0     0  0
  5  8  1  0     0  0
 21 20  2  0     0  0
M  END