
          11280715172D 1   1.00000     0.00000     0

 44 45  0     1  0            999 V2000
    6.9000   -6.3250    0.0000 C   0  0  1  0  0  0           0  0  0
    5.3500   -6.6292    0.0000 C   0  0  1  0  0  0           0  0  0
    4.8375   -6.3292    0.0000 C   0  0  0  0  0  0           0  0  0
    7.4167   -6.6167    0.0000 C   0  0  0  0  0  0           0  0  0
    6.3875   -6.6250    0.0000 C   0  0  1  0  0  0           0  0  0
    5.8667   -6.3292    0.0000 C   0  0  1  0  0  0           0  0  0
    4.3167   -6.6292    0.0000 N   0  0  0  0  0  0           0  0  0
    7.9375   -6.3167    0.0000 N   0  0  0  0  0  0           0  0  0
    3.8000   -6.3375    0.0000 C   0  0  2  0  0  0           0  0  0
    8.4500   -6.6167    0.0000 C   0  0  2  0  0  0           0  0  0
    3.2875   -6.6375    0.0000 C   0  0  0  0  0  0           0  0  0
    8.9667   -6.3167    0.0000 C   0  0  0  0  0  0           0  0  0
    5.3500   -7.2292    0.0000 O   0  0  0  0  0  0           0  0  0
    6.9000   -5.7250    0.0000 O   0  0  0  0  0  0           0  0  0
    4.8292   -5.7292    0.0000 O   0  0  0  0  0  0           0  0  0
    7.4125   -7.2167    0.0000 O   0  0  0  0  0  0           0  0  0
    3.2792   -7.2375    0.0000 O   0  0  0  0  0  0           0  0  0
    8.9625   -5.7167    0.0000 O   0  0  0  0  0  0           0  0  0
    2.7667   -6.3417    0.0000 N   0  0  0  0  0  0           0  0  0
    9.4875   -6.6125    0.0000 N   0  0  0  0  0  0           0  0  0
    6.3792   -7.2250    0.0000 O   0  0  0  0  0  0           0  0  0
    5.8625   -5.7292    0.0000 O   0  0  0  0  0  0           0  0  0
    4.8250   -7.5250    0.0000 C   0  0  0  0  0  0           0  0  0
    7.4125   -5.4167    0.0000 C   0  0  0  0  0  0           0  0  0
    8.4500   -7.2167    0.0000 C   0  0  3  0  0  0           0  0  0
    3.8000   -5.7375    0.0000 C   0  0  3  0  0  0           0  0  0
    4.8250   -8.1250    0.0000 C   0  0  0  0  0  0           0  0  0
    7.4125   -4.8167    0.0000 C   0  0  0  0  0  0           0  0  0
    2.2500   -6.6417    0.0000 C   0  0  0  0  0  0           0  0  0
   10.0000   -6.3125    0.0000 C   0  0  0  0  0  0           0  0  0
    3.2750   -5.4375    0.0000 C   0  0  0  0  0  0           0  0  0
    7.9250   -7.5125    0.0000 C   0  0  0  0  0  0           0  0  0
    8.9625   -7.5167    0.0000 C   0  0  0  0  0  0           0  0  0
    4.3125   -5.4292    0.0000 C   0  0  0  0  0  0           0  0  0
    7.9250   -4.5167    0.0000 C   0  0  0  0  0  0           0  0  0
    6.8875   -4.5250    0.0000 C   0  0  0  0  0  0           0  0  0
    4.3000   -8.4167    0.0000 C   0  0  0  0  0  0           0  0  0
    5.3375   -8.4250    0.0000 C   0  0  0  0  0  0           0  0  0
    6.8792   -3.9250    0.0000 C   0  0  0  0  0  0           0  0  0
    4.2917   -9.0167    0.0000 C   0  0  0  0  0  0           0  0  0
    5.3375   -9.0167    0.0000 C   0  0  0  0  0  0           0  0  0
    7.9250   -3.9167    0.0000 C   0  0  0  0  0  0           0  0  0
    7.4000   -3.6167    0.0000 C   0  0  0  0  0  0           0  0  0
    4.8125   -9.3167    0.0000 C   0  0  0  0  0  0           0  0  0
  2  6  1  0     0  0
  3  2  1  0     0  0
  4  1  1  0     0  0
  5  1  1  0     0  0
  6  5  1  0     0  0
  7  3  1  0     0  0
  8  4  1  0     0  0
  9  7  1  0     0  0
 10  8  1  0     0  0
 11  9  1  0     0  0
 12 10  1  0     0  0
  2 13  1  1     0  0
  1 14  1  1     0  0
 15  3  2  0     0  0
 16  4  2  0     0  0
 17 11  2  0     0  0
 18 12  2  0     0  0
 19 11  1  0     0  0
 20 12  1  0     0  0
  5 21  1  6     0  0
  6 22  1  6     0  0
 23 13  1  0     0  0
 24 14  1  0     0  0
 10 25  1  6     0  0
  9 26  1  6     0  0
 27 23  1  0     0  0
 28 24  1  0     0  0
 29 19  1  0     0  0
 30 20  1  0     0  0
 31 26  1  0     0  0
 32 25  1  0     0  0
 33 25  1  0     0  0
 34 26  1  0     0  0
 35 28  2  0     0  0
 36 28  1  0     0  0
 37 27  2  0     0  0
 38 27  1  0     0  0
 39 36  2  0     0  0
 40 37  1  0     0  0
 41 38  2  0     0  0
 42 35  1  0     0  0
 43 39  1  0     0  0
 44 41  1  0     0  0
 42 43  2  0     0  0
 40 44  2  0     0  0
M  END