
  SciTegic01061414252D

 22 23  0  0  0  0            999 V2000
   22.9787   -4.3083    0.0000 O   0  0
   22.1537   -4.3083    0.0000 S   0  0
   22.5662   -5.0227    0.0000 O   0  0
   21.4439   -2.2457    0.0000 C   0  0
   21.4428   -3.0731    0.0000 C   0  0
   22.1575   -3.4859    0.0000 C   0  0
   22.8740   -3.0726    0.0000 C   0  0
   22.8712   -2.2421    0.0000 C   0  0
   22.1557   -1.8330    0.0000 C   0  0
   23.5840   -1.8270    0.0000 C   0  0
   24.3000   -2.2367    0.0000 C   0  0
   23.5809   -1.0020    0.0000 O   0  0
   25.0129   -1.8215    0.0000 S   0  0
   25.7289   -2.2314    0.0000 C   0  0
   25.7289   -3.0551    0.0000 N   0  0
   26.4441   -3.4649    0.0000 C   0  0
   27.1579   -3.0497    0.0000 C   0  0
   27.1522   -2.2205    0.0000 C   0  0
   26.4364   -1.8144    0.0000 N   0  0
   21.4428   -4.7233    0.0000 N   0  0
   27.8636   -1.8027    0.0000 C   0  0
   26.4468   -4.2899    0.0000 C   0  0
  2  1  2  0
  3  2  2  0
  4  5  2  0
  5  6  1  0
  6  7  2  0
  7  8  1  0
  8  9  2  0
  9  4  1  0
  8 10  1  0
 10 11  1  0
 10 12  2  0
 11 13  1  0
 13 14  1  0
 14 15  2  0
 15 16  1  0
 16 17  2  0
 17 18  1  0
 18 19  2  0
 19 14  1  0
  6  2  1  0
  2 20  1  0
 18 21  1  0
 16 22  1  0
M  END