
  SciTegic10311316282D

 49 53  0  0  0  0            999 V2000
   19.8477  -22.0243    0.0000 O   0  0
   20.5664  -22.4394    0.0000 S   0  0
   20.5665  -21.6093    0.0000 O   0  0
   23.2551  -18.0268    0.0000 C   0  0  1  0  0  0
   24.0390  -18.2986    0.0000 N   0  0
   24.5448  -17.6398    0.0000 C   0  0
   24.0681  -16.9612    0.0000 N   0  0
   23.2753  -17.1975    0.0000 C   0  0  1  0  0  0
   22.5680  -16.7889    0.0000 C   0  0
   22.5681  -15.9628    0.0000 C   0  0
   21.8529  -15.5537    0.0000 C   0  0
   21.1368  -15.9649    0.0000 C   0  0
   21.1405  -16.7939    0.0000 C   0  0
   21.8564  -17.1994    0.0000 C   0  0
   22.5501  -18.4507    0.0000 C   0  0
   21.8335  -18.0442    0.0000 C   0  0
   21.1242  -18.4687    0.0000 C   0  0
   21.1356  -19.2946    0.0000 C   0  0
   21.8617  -19.6942    0.0000 C   0  0
   22.5681  -19.2674    0.0000 C   0  0
   25.3675  -17.6525    0.0000 C   0  0
   25.7642  -18.3768    0.0000 C   0  0
   26.5884  -18.3918    0.0000 C   0  0
   27.0117  -17.6882    0.0000 C   0  0
   26.6103  -16.9631    0.0000 C   0  0
   25.7873  -16.9514    0.0000 C   0  0
   25.3883  -16.2297    0.0000 O   0  0
   25.8091  -15.5255    0.0000 C   0  0
   25.4098  -14.8038    0.0000 C   0  0
   27.8368  -17.7018    0.0000 C   0  0
   28.2349  -18.4190    0.0000 C   0  0
   28.2636  -16.9931    0.0000 C   0  0
   28.6605  -17.7014    0.0000 C   0  0
   24.4230  -19.0284    0.0000 C   0  0
   23.9876  -19.7237    0.0000 N   0  0
   25.2476  -19.0581    0.0000 O   0  0
   23.1601  -19.6926    0.0000 C   0  0
   22.7200  -20.3839    0.0000 C   0  0
   23.1007  -21.1160    0.0000 N   0  0
   23.9261  -21.1476    0.0000 C   0  0
   24.3707  -20.4521    0.0000 C   0  0
   20.4219  -15.5530    0.0000 Cl  0  0
   20.4282  -19.7192    0.0000 Cl  0  0
   23.2695  -16.3702    0.0000 C   0  0
   23.2493  -18.8505    0.0000 C   0  0
   22.6590  -21.8130    0.0000 C   0  0
   21.8347  -21.7791    0.0000 C   0  0
   21.3931  -22.4760    0.0000 C   0  0
   20.1271  -23.1392    0.0000 C   0  0
  2  1  2  0
  3  2  2  0
  4  5  1  0
  5  6  1  0
  6  7  2  0
  7  8  1  0
  8  4  1  0
  9 10  2  0
 10 11  1  0
 11 12  2  0
 12 13  1  0
 13 14  2  0
 14  9  1  0
  8  9  1  0
 15 16  2  0
 16 17  1  0
 17 18  2  0
 18 19  1  0
 19 20  2  0
 20 15  1  0
  4 15  1  0
 21 22  2  0
 22 23  1  0
 23 24  2  0
 24 25  1  0
 25 26  2  0
 26 21  1  0
  6 21  1  0
 26 27  1  0
 27 28  1  0
 28 29  1  0
 24 30  1  0
 30 31  1  0
 30 32  1  0
 30 33  1  0
  5 34  1  0
 34 35  1  0
 34 36  2  0
 35 37  1  0
 35 41  1  0
 37 38  1  0
 38 39  1  0
 39 40  1  0
 40 41  1  0
 12 42  1  0
 18 43  1  0
  8 44  1  1
  4 45  1  1
 39 46  1  0
 46 47  1  0
 47 48  1  0
 48  2  1  0
  2 49  1  0
M  END