
          03140815512D 1   1.00000     0.00000     0

 28 32  0     0  0            999 V2000
    4.7578  -18.0849    0.0000 C   0  0  0  0  0  0           0  0  0
    5.3995  -17.4009    0.0000 C   0  0  3  0  0  0           0  0  0
    5.5628  -17.8598    0.0000 C   0  0  3  0  0  0           0  0  0
    6.1112  -17.6637    0.0000 C   0  0  0  0  0  0           0  0  0
    6.3159  -18.1628    0.0000 C   0  0  0  0  0  0           0  0  0
    6.8595  -17.4781    0.0000 C   0  0  3  0  0  0           0  0  0
    5.5559  -17.0110    0.0000 C   0  0  0  0  0  0           0  0  0
    6.1170  -16.3486    0.0000 C   0  0  3  0  0  0           0  0  0
    5.3950  -16.6051    0.0000 C   0  0  0  0  0  0           0  0  0
    6.8653  -16.6587    0.0000 C   0  0  0  0  0  0           0  0  0
    6.1117  -15.5211    0.0000 C   0  0  0  0  0  0           0  0  0
    6.8240  -15.1039    0.0000 N   0  0  0  0  0  0           0  0  0
    7.5414  -15.5121    0.0000 C   0  0  0  0  0  0           0  0  0
    7.5467  -16.3375    0.0000 O   0  0  0  0  0  0           0  0  0
    8.2537  -15.0948    0.0000 C   0  0  0  0  0  0           0  0  0
    8.9685  -15.5036    0.0000 C   0  0  0  0  0  0           0  0  0
    9.6802  -15.0871    0.0000 N   0  0  0  0  0  0           0  0  0
    9.6755  -14.2608    0.0000 N   0  0  0  0  0  0           0  0  0
    8.9530  -13.8528    0.0000 C   0  0  0  0  0  0           0  0  0
    8.2442  -14.2717    0.0000 C   0  0  0  0  0  0           0  0  0
    8.9448  -13.0273    0.0000 O   0  0  0  0  0  0           0  0  0
    9.6556  -12.6076    0.0000 C   0  0  3  0  0  0           0  0  0
   10.3737  -13.0153    0.0000 C   0  0  0  0  0  0           0  0  0
   11.0823  -12.5991    0.0000 C   0  0  0  0  0  0           0  0  0
   11.0784  -11.7733    0.0000 N   0  0  0  0  0  0           0  0  0
   10.3596  -11.3654    0.0000 C   0  0  0  0  0  0           0  0  0
    9.6447  -11.7833    0.0000 C   0  0  0  0  0  0           0  0  0
    8.9726  -16.3291    0.0000 C   0  0  0  0  0  0           0  0  0
 12 13  1  0     0  0
  2  4  1  0     0  0
 13 14  2  0     0  0
  3  5  1  0     0  0
 13 15  1  0     0  0
  4  6  1  0     0  0
 15 16  2  0     0  0
  5  6  1  0     0  0
 16 17  1  0     0  0
  7  8  1  0     0  0
 17 18  2  0     0  0
  3  7  1  0     0  0
 18 19  1  0     0  0
  2  9  1  0     0  0
 19 20  2  0     0  0
 20 15  1  0     0  0
  6 10  1  0     0  0
 19 21  1  0     0  0
 10  8  1  0     0  0
 21 22  1  0     0  0
 22 23  1  0     0  0
  8  9  1  0     0  0
  8 11  1  0     0  0
  1  2  1  0     0  0
 11 12  1  0     0  0
 22 27  1  0     0  0
 23 24  1  0     0  0
 24 25  1  0     0  0
 25 26  1  0     0  0
 26 27  1  0     0  0
  1  3  1  0     0  0
 16 28  1  0     0  0
M  END