
  SciTegic01161211252D

 37 38  0  0  0  0            999 V2000
    7.4389   -7.4805    0.0000 Na  0  3
    2.4723   -7.0326    0.0000 C   0  0  2  0  0  0
    2.4723   -7.8606    0.0000 C   0  0  2  0  0  0
    3.1834   -8.2703    0.0000 C   0  0  2  0  0  0
    3.8986   -7.8606    0.0000 C   0  0
    3.8986   -7.0326    0.0000 C   0  0  2  0  0  0
    3.1834   -6.6145    0.0000 O   0  0
    4.6098   -7.4487    0.0000 O   0  0
    4.3035   -6.3187    0.0000 C   0  0
    5.1314   -6.3073    0.0000 O   0  0
    3.8860   -5.6055    0.0000 O   0  5
    1.7556   -6.6239    0.0000 C   0  0  2  0  0  0
    1.0385   -7.0390    0.0000 C   0  0  2  0  0  0
   -0.3885   -7.8736    0.0000 C   0  0
   -1.1056   -8.2887    0.0000 C   0  0
   -0.3922   -7.0457    0.0000 O   0  0
   -1.8172   -7.8743    0.0000 C   0  0
   -2.5336   -8.2883    0.0000 C   0  0
   -2.5306   -9.1176    0.0000 C   0  0
   -1.8063   -9.5261    0.0000 C   0  0
   -1.0986   -9.1085    0.0000 C   0  0
    1.0385   -7.8637    0.0000 C   0  0
    1.7591   -9.0973    0.0000 C   0  0
    1.0452   -9.5108    0.0000 O   0  0
    2.4790   -9.5077    0.0000 C   0  0
    2.4510   -6.2093    0.0000 H   0  0
    4.6050   -8.2725    0.0000 C   0  0
    5.3160   -8.6885    0.0000 C   0  0
    5.3997   -9.5059    0.0000 N   0  0
    6.2045   -9.6819    0.0000 N   0  0
    6.6205   -8.9707    0.0000 N   0  0
    6.0727   -8.3555    0.0000 C   0  0
    1.7551   -5.7942    0.0000 O   0  0
    0.3236   -6.6252    0.0000 O   0  0
    0.3279   -8.2828    0.0000 N   0  0
    3.1865   -9.0923    0.0000 O   0  0
    1.7573   -8.2723    0.0000 N   0  0
  9 11  1  0
  2 12  1  0
 12 13  1  0
 13 22  1  0
 14 15  1  0
 14 16  2  0
 15 17  2  0
 17 18  1  0
 18 19  2  0
 19 20  1  0
 20 21  2  0
 21 15  1  0
 23 24  2  0
 23 25  1  0
  2 26  1  1
  8 27  1  0
 27 28  1  0
 28 29  1  0
  2  3  1  0
  2  7  1  0
  3  4  1  0
  4  5  1  0
 29 30  2  0
 30 31  1  0
 31 32  1  0
 32 28  2  0
  5  6  1  0
  6  7  1  0
  6  8  1  0
  6  9  1  1
  9 10  2  0
 13 34  1  1
 22 35  1  0
 35 14  1  0
 12 33  1  6
  4 36  1  6
  3 37  1  1
 37 23  1  0
M  CHG  2   1   1  11  -1
M  END