
  SciTegic02101212592D

 25 28  0  0  1  0            999 V2000
    1.4028    1.1319    0.0000 O   0  0
   -4.2349   -0.5354    0.0000 O   0  0
    0.3575   -0.4401    0.0000 C   0  0  2  0  0  0
    0.6378    0.3359    0.0000 C   0  0  1  0  0  0
   -0.4546   -0.5853    0.0000 C   0  0  1  0  0  0
    1.4624    0.3091    0.0000 C   0  0  2  0  0  0
   -0.9864    0.0454    0.0000 C   0  0
    1.0088   -0.9464    0.0000 C   0  0
    0.1060    0.9666    0.0000 C   0  0
    1.6917   -0.4834    0.0000 C   0  0
   -0.7349   -1.3612    0.0000 C   0  0
   -1.7986   -0.0998    0.0000 C   0  0
   -0.7061    0.8214    0.0000 C   0  0
    0.9977    1.0782    0.0000 C   0  0
    2.2745    0.4543    0.0000 C   0  0
   -2.0789   -0.8757    0.0000 C   0  0
   -1.5470   -1.5064    0.0000 C   0  0
   -2.3304    0.5309    0.0000 C   0  0
   -2.8910   -1.0209    0.0000 C   0  0
    0.5347    1.7611    0.0000 C   0  0
   -3.4228   -0.3902    0.0000 C   0  0
   -3.1425    0.3857    0.0000 C   0  0
    3.0866    0.5995    0.0000 C   0  0
    0.4457   -1.2603    0.0000 H   0  0
   -0.1706   -1.3598    0.0000 H   0  0
  6  1  1  1
  2 21  2  0
  3  4  1  0
  3  5  1  0
  3  8  1  0
  3 24  1  6
  4  6  1  0
  4  9  1  0
  4 14  1  1
  5  7  1  0
  5 11  1  0
  5 25  1  1
  6 10  1  0
  6 15  1  0
  7 12  2  0
  7 13  1  0
  8 10  1  0
  9 13  2  0
 11 17  1  0
 12 16  1  0
 12 18  1  0
 14 20  1  0
 15 23  3  0
 16 17  1  0
 16 19  2  0
 18 22  1  0
 19 21  1  0
 21 22  1  0
M  END