
          11280715112D 1   1.00000     0.00000     0

 32 35  0     1  0            999 V2000
    0.4167   -1.9917    0.0000 N   0  0  3  0  0  0           0  0  0
    0.4167   -2.8167    0.0000 C   0  0  1  0  0  0           0  0  0
   -2.4333   -2.0000    0.0000 C   0  0  0  0  0  0           0  0  0
   -1.0083   -1.9917    0.0000 C   0  0  2  0  0  0           0  0  0
    0.4167   -3.6417    0.0000 C   0  0  0  0  0  0           0  0  0
   -1.7208   -1.5792    0.0000 N   0  0  0  0  0  0           0  0  0
   -0.2958   -1.5792    0.0000 C   0  0  0  0  0  0           0  0  0
   -0.2958   -3.2292    0.0000 C   0  0  0  0  0  0           0  0  0
   -2.4333   -2.8250    0.0000 O   0  0  0  0  0  0           0  0  0
   -3.1500   -1.5875    0.0000 O   0  0  0  0  0  0           0  0  0
   -0.7708   -4.6625    0.0000 C   0  0  0  0  0  0           0  0  0
   -0.7083   -3.8417    0.0000 C   0  0  0  0  0  0           0  0  0
   -0.3083   -4.0417    0.0000 O   0  0  0  0  0  0           0  0  0
   -1.3833   -3.3750    0.0000 C   0  0  0  0  0  0           0  0  0
   -1.5958   -2.5792    0.0000 C   0  0  0  0  0  0           0  0  0
   -1.0083   -2.8167    0.0000 C   0  0  0  0  0  0           0  0  0
   -3.1458   -3.2375    0.0000 C   0  0  3  0  0  0           0  0  0
   -1.5208   -5.0167    0.0000 C   0  0  0  0  0  0           0  0  0
   -2.2000   -4.5500    0.0000 C   0  0  0  0  0  0           0  0  0
    1.1917   -1.7375    0.0000 C   0  0  0  0  0  0           0  0  0
    1.1250   -4.0542    0.0000 O   0  0  0  0  0  0           0  0  0
   -2.1333   -3.7292    0.0000 C   0  0  0  0  0  0           0  0  0
    1.2042   -3.0667    0.0000 C   0  0  0  0  0  0           0  0  0
    1.6792   -2.3917    0.0000 C   0  0  0  0  0  0           0  0  0
   -0.0958   -5.1292    0.0000 C   0  0  0  0  0  0           0  0  0
   -3.3625   -2.4417    0.0000 C   0  0  0  0  0  0           0  0  0
   -3.8625   -2.8292    0.0000 C   0  0  0  0  0  0           0  0  0
   -3.1458   -4.0625    0.0000 C   0  0  0  0  0  0           0  0  0
   -1.5833   -5.8417    0.0000 C   0  0  0  0  0  0           0  0  0
    1.1167   -4.8792    0.0000 C   0  0  0  0  0  0           0  0  0
   -0.1500   -5.9500    0.0000 C   0  0  0  0  0  0           0  0  0
   -0.9000   -6.3042    0.0000 C   0  0  0  0  0  0           0  0  0
  2  1  1  0     0  0
  3  6  1  0     0  0
  4  7  1  0     0  0
  2  5  1  1     0  0
  4  6  1  1     0  0
  7  1  1  0     0  0
  8  2  1  0     0  0
  9  3  1  0     0  0
 10  3  2  0     0  0
 11 12  2  0     0  0
 12 14  1  0     0  0
 13  5  2  0     0  0
 14 15  1  0     0  0
  4 15  1  6     0  0
 16  4  1  0     0  0
 17  9  1  0     0  0
 18 19  2  0     0  0
 19 22  1  0     0  0
 20  1  1  0     0  0
 21  5  1  0     0  0
 22 14  2  0     0  0
 23  2  1  0     0  0
 24 20  1  0     0  0
 25 11  1  0     0  0
 26 17  1  0     0  0
 27 17  1  0     0  0
 28 17  1  0     0  0
 29 18  1  0     0  0
 30 21  1  0     0  0
 31 25  2  0     0  0
 32 29  2  0     0  0
 23 24  1  0     0  0
  8 16  1  0     0  0
 11 18  1  0     0  0
 32 31  1  0     0  0
M  END