
  SciTegic12231509382D

 24 26  0  0  0  0            999 V2000
    3.5282   -3.8878    0.0000 C   0  0
    4.2329   -4.3090    0.0000 C   0  0
    4.9479   -3.9092    0.0000 C   0  0
    4.9593   -3.0886    0.0000 C   0  0
    4.2499   -2.6693    0.0000 C   0  0
    3.5378   -3.0714    0.0000 C   0  0
    5.6800   -2.6840    0.0000 N   0  0
    6.3900   -3.1061    0.0000 C   0  0
    7.1085   -2.7050    0.0000 C   0  0
    7.1227   -1.8782    0.0000 N   0  0
    6.4122   -1.4541    0.0000 C   0  0
    5.6874   -1.8569    0.0000 C   0  0
    7.8450   -1.4764    0.0000 C   0  0
    7.8581   -0.6499    0.0000 C   0  0
    8.5804   -0.2480    0.0000 N   0  0
    8.5935    0.5784    0.0000 C   0  0
    9.3158    0.9803    0.0000 C   0  0
    7.8844    1.0030    0.0000 O   0  0
   10.0613    0.6299    0.0000 C   0  0
   10.6240    1.2353    0.0000 C   0  0
   10.2222    1.9577    0.0000 C   0  0
    9.4110    1.7985    0.0000 O   0  0
    4.2210   -5.1354    0.0000 O   0  0
    3.4994   -5.5383    0.0000 C   0  0
 11 12  1  0
  5  6  2  0
 10 13  1  0
  6  1  1  0
 13 14  1  0
  2  3  1  0
 14 15  1  0
  4  7  1  0
 15 16  1  0
  7  8  1  0
 16 17  1  0
 16 18  2  0
 17 19  2  0
  3  4  2  0
  1  2  2  0
  4  5  1  0
 19 20  1  0
 20 21  2  0
 21 22  1  0
 22 17  1  0
  7 12  1  0
  2 23  1  0
  8  9  1  0
 23 24  1  0
  9 10  1  0
 10 11  1  0
M  END