
          11280715332D 1   1.00000     0.00000     0

 22 23  0     0  0            999 V2000
   -0.0250   -2.0167    0.0000 C   0  0  0  0  0  0           0  0  0
    2.1250   -1.5917    0.0000 C   0  0  0  0  0  0           0  0  0
    5.7042    0.5000    0.0000 C   0  0  0  0  0  0           0  0  0
   -0.0250   -2.8417    0.0000 C   0  0  0  0  0  0           0  0  0
    2.8417   -1.1667    0.0000 C   0  0  0  0  0  0           0  0  0
   -0.7458   -1.6000    0.0000 C   0  0  3  0  0  0           0  0  0
    5.0000    0.0833    0.0000 C   0  0  0  0  0  0           0  0  0
    0.6917   -1.5917    0.0000 C   0  0  0  0  0  0           0  0  0
    1.4167   -2.0042    0.0000 C   0  0  0  0  0  0           0  0  0
    5.7042    1.3333    0.0000 O   0  0  0  0  0  0           0  0  0
    3.5625   -0.7500    0.0000 C   0  0  0  0  0  0           0  0  0
    5.0000   -0.7500    0.0000 C   0  0  0  0  0  0           0  0  0
    4.2667    0.4958    0.0000 C   0  0  0  0  0  0           0  0  0
    6.4375    0.0833    0.0000 O   0  0  0  0  0  0           0  0  0
    3.5542    0.0833    0.0000 C   0  0  0  0  0  0           0  0  0
    4.2792   -1.1667    0.0000 C   0  0  0  0  0  0           0  0  0
   -0.7458   -3.2625    0.0000 C   0  0  0  0  0  0           0  0  0
   -1.4625   -2.0167    0.0000 C   0  0  0  0  0  0           0  0  0
    0.6917   -3.2625    0.0000 C   0  0  0  0  0  0           0  0  0
   -1.4750   -1.1792    0.0000 C   0  0  0  0  0  0           0  0  0
   -0.0375   -1.1792    0.0000 C   0  0  0  0  0  0           0  0  0
   -1.4625   -2.8417    0.0000 C   0  0  0  0  0  0           0  0  0
  2  9  1  0     0  0
  3  7  1  0     0  0
  4  1  2  0     0  0
  5  2  3  0     0  0
  6  1  1  0     0  0
  7 12  2  0     0  0
  8  1  1  0     0  0
  9  8  2  0     0  0
 10  3  2  0     0  0
 11  5  1  0     0  0
 12 16  1  0     0  0
 13 15  2  0     0  0
 14  3  1  0     0  0
 15 11  1  0     0  0
 16 11  2  0     0  0
 17  4  1  0     0  0
 18  6  1  0     0  0
 19  4  1  0     0  0
 20  6  1  0     0  0
 21  6  1  0     0  0
 22 18  1  0     0  0
 22 17  1  0     0  0
  7 13  1  0     0  0
M  END