
          08180812492D 1   1.00000     0.00000     0

 29 31  0     0  0            999 V2000
    0.1819  -16.3583    0.0000 C   0  0  0  0  0  0           0  0  0
    0.1807  -17.1857    0.0000 C   0  0  0  0  0  0           0  0  0
    0.8956  -17.5985    0.0000 C   0  0  0  0  0  0           0  0  0
    1.6120  -17.1852    0.0000 C   0  0  0  0  0  0           0  0  0
    1.6091  -16.3547    0.0000 C   0  0  0  0  0  0           0  0  0
    0.8938  -15.9455    0.0000 C   0  0  0  0  0  0           0  0  0
   -0.5341  -17.5976    0.0000 C   0  0  0  0  0  0           0  0  0
   -1.2482  -17.1845    0.0000 N   0  0  3  0  0  0           0  0  0
   -0.5347  -18.4226    0.0000 O   0  0  0  0  0  0           0  0  0
   -1.2482  -16.3599    0.0000 C   0  0  0  0  0  0           0  0  0
   -1.9582  -15.9469    0.0000 C   0  0  0  0  0  0           0  0  0
   -2.6754  -16.3553    0.0000 N   0  0  3  0  0  0           0  0  0
   -2.6780  -17.1813    0.0000 C   0  0  0  0  0  0           0  0  0
   -1.9635  -17.5988    0.0000 C   0  0  0  0  0  0           0  0  0
    2.3221  -15.9395    0.0000 O   0  0  0  0  0  0           0  0  0
    2.3189  -15.1145    0.0000 C   0  0  0  0  0  0           0  0  0
    3.0336  -14.7041    0.0000 C   0  0  0  0  0  0           0  0  0
    3.0309  -13.8799    0.0000 C   0  0  0  0  0  0           0  0  0
    2.3143  -13.4693    0.0000 C   0  0  0  0  0  0           0  0  0
    1.5990  -13.8889    0.0000 C   0  0  0  0  0  0           0  0  0
    1.6053  -14.7117    0.0000 C   0  0  0  0  0  0           0  0  0
    2.3271  -17.5966    0.0000 C   0  0  0  0  0  0           0  0  0
    3.0409  -17.1829    0.0000 N   0  0  0  0  0  0           0  0  0
    3.7561  -17.5943    0.0000 C   0  0  0  0  0  0           0  0  0
   -3.3880  -15.9396    0.0000 C   0  0  3  0  0  0           0  0  0
   -3.3842  -15.1146    0.0000 C   0  0  0  0  0  0           0  0  0
   -4.1043  -16.3488    0.0000 C   0  0  0  0  0  0           0  0  0
    3.7440  -13.4650    0.0000 Cl  0  0  0  0  0  0           0  0  0
    2.3101  -12.6443    0.0000 Cl  0  0  0  0  0  0           0  0  0
 13 14  1  0     0  0
  2  7  1  0     0  0
  5 15  1  0     0  0
  3  4  2  0     0  0
 15 16  1  0     0  0
  7  8  1  0     0  0
 16 17  2  0     0  0
 17 18  1  0     0  0
  7  9  2  0     0  0
 18 19  2  0     0  0
  8 10  1  0     0  0
 19 20  1  0     0  0
  4  5  1  0     0  0
 20 21  2  0     0  0
 21 16  1  0     0  0
  2  3  1  0     0  0
  4 22  1  0     0  0
  5  6  2  0     0  0
 22 23  1  0     0  0
  6  1  1  0     0  0
 23 24  1  0     0  0
  1  2  2  0     0  0
 12 25  1  0     0  0
  8 14  1  0     0  0
 25 26  1  0     0  0
 10 11  1  0     0  0
 25 27  1  0     0  0
 11 12  1  0     0  0
 18 28  1  0     0  0
 12 13  1  0     0  0
 19 29  1  0     0  0
M  END