
          08180812472D 1   1.00000     0.00000     0

 26 29  0     1  0            999 V2000
    2.6601   -4.1678    0.0000 C   0  0  0  0  0  0           0  0  0
    2.6601   -3.3425    0.0000 C   0  0  0  0  0  0           0  0  0
    3.3745   -2.9298    0.0000 C   0  0  0  0  0  0           0  0  0
    1.9457   -4.5804    0.0000 O   0  0  0  0  0  0           0  0  0
    3.3745   -4.5804    0.0000 C   0  0  0  0  0  0           0  0  0
    4.0889   -4.1678    0.0000 C   0  0  2  0  0  0           0  0  0
    4.8033   -4.5804    0.0000 C   0  0  0  0  0  0           0  0  0
    5.5177   -4.1678    0.0000 C   0  0  2  0  0  0           0  0  0
    5.5177   -3.3425    0.0000 C   0  0  1  0  0  0           0  0  0
    6.2320   -2.9298    0.0000 C   0  0  2  0  0  0           0  0  0
    7.0176   -3.1899    0.0000 C   0  0  0  0  0  0           0  0  0
    7.5051   -2.5172    0.0000 C   0  0  0  0  0  0           0  0  0
    7.0176   -1.8537    0.0000 C   0  0  2  0  0  0           0  0  0
    7.2730   -1.0683    0.0000 O   0  0  0  0  0  0           0  0  0
    6.2320   -2.1045    0.0000 C   0  0  2  0  0  0           0  0  0
    6.2320   -1.2792    0.0000 C   0  0  0  0  0  0           0  0  0
    5.5177   -1.6919    0.0000 C   0  0  0  0  0  0           0  0  0
    4.8033   -2.1045    0.0000 C   0  0  0  0  0  0           0  0  0
    4.8033   -2.9298    0.0000 C   0  0  2  0  0  0           0  0  0
    4.0889   -3.3425    0.0000 C   0  0  1  0  0  0           0  0  0
    4.0889   -2.5172    0.0000 C   0  0  0  0  0  0           0  0  0
    4.0889   -4.9931    0.0000 H   0  0  0  0  0  0           0  0  0
    4.8033   -3.7551    0.0000 H   0  0  0  0  0  0           0  0  0
    5.5177   -2.5172    0.0000 H   0  0  0  0  0  0           0  0  0
    6.2320   -3.7551    0.0000 H   0  0  0  0  0  0           0  0  0
    6.2325   -4.5804    0.0000 C   0  0  0  0  0  0           0  0  0
  1  2  1  0     0  0
  2  3  1  0     0  0
  1  4  2  0     0  0
  1  5  1  0     0  0
  5  6  1  0     0  0
  6  7  1  0     0  0
  7  8  1  0     0  0
  8  9  1  0     0  0
  9 10  1  0     0  0
 10 11  1  0     0  0
 11 12  1  0     0  0
 12 13  1  0     0  0
 13 14  1  1     0  0
 13 15  1  0     0  0
 10 15  1  0     0  0
 15 16  1  1     0  0
 15 17  1  0     0  0
 17 18  1  0     0  0
 18 19  1  0     0  0
  9 19  1  0     0  0
 19 20  1  0     0  0
  3 20  1  0     0  0
  6 20  1  0     0  0
 20 21  1  1     0  0
  6 22  1  6     0  0
 19 23  1  6     0  0
  9 24  1  1     0  0
 10 25  1  6     0  0
  8 26  1  6     0  0
M  END