
  SciTegic12231509382D

 23 26  0  0  0  0            999 V2000
    0.1731   -0.2221    0.0000 C   0  0
   -0.6519   -0.2221    0.0000 N   0  0
    0.6875    0.4229    0.0000 C   0  0
   -0.2394    1.5852    0.0000 N   0  0
    0.5310   -0.9654    0.0000 N   0  0
   -1.1663    0.4229    0.0000 C   0  0
    0.5039    1.2272    0.0000 C   0  0
   -0.9827    1.2272    0.0000 C   0  0
   -1.9546    0.1797    0.0000 C   0  0
    1.2470   -2.4520    0.0000 N   0  0
    1.3537   -1.0270    0.0000 C   0  0
    0.0663   -1.6470    0.0000 C   0  0
   -1.5875    1.7884    0.0000 C   0  0
   -2.5594    0.7409    0.0000 C   0  0
    0.4243   -2.3903    0.0000 C   0  0
    1.7117   -1.7703    0.0000 C   0  0
    1.4758    0.1797    0.0000 C   0  0
   -2.3758    1.5452    0.0000 C   0  0
   -3.3478    0.4977    0.0000 Cl  0  0
    1.1087    1.7884    0.0000 C   0  0
    1.6049   -3.1953    0.0000 C   0  0
    2.0806    0.7409    0.0000 C   0  0
    1.8970    1.5452    0.0000 C   0  0
  1  2  2  0
  1  3  1  0
  1  5  1  0
  2  6  1  0
  3  7  2  0
  4  7  1  0
  4  8  1  0
  6  8  1  0
  6  9  2  0
  5 11  1  0
  5 12  1  0
  8 13  2  0
  9 14  1  0
 10 15  1  0
 12 15  1  0
 10 16  1  0
 11 16  1  0
  3 17  1  0
 13 18  1  0
 14 18  2  0
 14 19  1  0
  7 20  1  0
 10 21  1  0
 17 22  2  0
 20 23  2  0
 22 23  1  0
M  END