
  SciTegic05171617272D

 33 36  0  0  0  0            999 V2000
   -6.2633   11.6829    0.0000 C   0  0
   -6.2593   10.4829    0.0000 C   0  0
   -7.5559    9.7286    0.0000 C   0  0
   -7.5509    8.2286    0.0000 C   0  0
   -6.2494    7.4828    0.0000 C   0  0
   -6.2413    5.9820    0.0000 C   0  0
   -4.9380    5.2378    0.0000 N   0  0
   -4.9300    3.7369    0.0000 C   0  0
   -5.9662    3.1317    0.0000 O   0  0
   -3.6267    2.9927    0.0000 C   0  0
   -3.6187    1.4919    0.0000 O   0  0
   -2.3155    0.7475    0.0000 C   0  0
   -2.3155   -0.7475    0.0000 C   0  0
   -1.0028   -1.5132    0.0000 C   0  0
    0.2917   -0.7475    0.0000 C   0  0
    1.7138   -1.2033    0.0000 C   0  0
    2.5889    0.0182    0.0000 N   0  0
    1.7138    1.2033    0.0000 N   0  0
    2.0825    2.3453    0.0000 C   0  0
    0.2917    0.7475    0.0000 C   0  0
   -1.0028    1.5132    0.0000 N   0  0
    2.1852   -2.6281    0.0000 C   0  0
    3.6221   -3.0405    0.0000 C   0  0
    3.9838   -4.4963    0.0000 C   0  0
    2.9039   -5.5373    0.0000 C   0  0
    1.4624   -5.1227    0.0000 C   0  0
    1.1007   -3.6669    0.0000 C   0  0
   -0.9940   -3.0137    0.0000 C   0  0
   -2.0293   -3.6205    0.0000 F   0  0
    0.0489   -3.6073    0.0000 F   0  0
   -0.9864   -4.2137    0.0000 F   0  0
   -4.9528    8.2372    0.0000 C   0  0
   -4.9578    9.7372    0.0000 C   0  0
  1  2  1  0
  2  3  2  0
  3  4  1  0
  4  5  2  0
  5  6  1  0
  6  7  1  0
  7  8  1  0
  8  9  2  0
  8 10  1  0
 10 11  1  0
 11 12  1  0
 12 13  2  0
 13 14  1  0
 14 15  2  0
 15 16  1  0
 16 17  2  0
 17 18  1  0
 18 19  1  0
 18 20  1  0
 15 20  1  0
 20 21  2  0
 12 21  1  0
 16 22  1  0
 22 23  2  0
 23 24  1  0
 24 25  2  0
 25 26  1  0
 26 27  2  0
 22 27  1  0
 14 28  1  0
 28 29  1  0
 28 30  1  0
 28 31  1  0
  5 32  1  0
 32 33  2  0
  2 33  1  0
M  END