
  SciTegic01161211232D

 17 16  0  0  0  0            999 V2000
    7.1292   -2.7542    0.0000 P   0  0
    3.0292   -2.7750    0.0000 P   0  0
    6.4417   -3.1542    0.0000 C   0  0
    3.7167   -3.1667    0.0000 C   0  0
    3.0792   -1.9000    0.0000 O   0  0
    7.5750   -3.3667    0.0000 O   0  0
    7.8667   -2.5292    0.0000 O   0  0
    2.1417   -2.4167    0.0000 O   0  0
    2.3417   -3.4792    0.0000 O   0  0
    7.1250   -1.9542    0.0000 O   0  0
    3.3167   -3.8417    0.0000 F   0  0
    4.1042   -3.8417    0.0000 F   0  0
    6.0417   -3.8292    0.0000 F   0  0
    6.8292   -3.8292    0.0000 F   0  0
    4.4000   -2.7542    0.0000 C   0  0
    5.7667   -2.7542    0.0000 C   0  0
    5.0792   -3.1542    0.0000 O   0  0
  2  4  1  0
  3  1  1  0
  4 15  1  0
  5  2  1  0
  6  1  1  0
  7  1  1  0
  8  2  1  0
  9  2  2  0
 10  1  2  0
 11  4  1  0
 12  4  1  0
 13  3  1  0
 14  3  1  0
 15 17  1  0
 16  3  1  0
 17 16  1  0
M  END