
  SciTegic01161211252D

 14 15  0  0  0  0            999 V2000
    6.8792   -2.6417    0.0000 C   0  0
    6.8792   -3.2417    0.0000 C   0  0
    6.3542   -2.3417    0.0000 C   0  0
    5.8417   -2.6417    0.0000 C   0  0
    5.8417   -3.2417    0.0000 C   0  0
    6.3542   -3.5417    0.0000 C   0  0
    7.4000   -2.3375    0.0000 C   0  0
    8.3417   -2.2125    0.0000 N   0  0
    7.4000   -3.5417    0.0000 C   0  0
    7.9167   -2.6417    0.0000 C   0  0  2  0  0  0
    5.3167   -2.3417    0.0000 O   0  0
    5.3167   -3.5417    0.0000 O   0  0
    7.9167   -3.2417    0.0000 C   0  0
    8.4375   -2.9417    0.0000 H   0  0
  2  1  1  0
  3  1  2  0
  4  3  1  0
  5  4  2  0
  6  2  2  0
  7  1  1  0
 10  8  1  6
  9  2  1  0
 10  7  1  0
 11  4  1  0
 12  5  1  0
 13 10  1  0
 10 14  1  1
  5  6  1  0
  9 13  1  0
M  END