
  SciTegic04071410272D

 26 28  0  0  0  0            999 V2000
   -0.5452    1.5275    0.0000 C   0  0  1  0  0  0
    0.5218    0.7256    0.0000 C   0  0  2  0  0  0
    0.0056    1.1543    0.0000 C   0  0
   -0.9661    1.1543    0.0000 C   0  0  1  0  0  0
   -1.1058    1.9674    0.0000 N   0  3
    0.3836    1.5430    0.0000 C   0  0
   -1.4860    0.4420    0.0000 C   0  0
   -0.8657    0.8189    0.0000 C   0  0
    0.9336    0.0108    0.0000 C   0  0
    0.5204   -0.7033    0.0000 C   0  0
    0.1072   -1.4174    0.0000 C   0  0
    1.2344   -1.1165    0.0000 C   0  0
   -0.1937   -0.2901    0.0000 O   0  0
   -0.7351    2.3304    0.0000 H   0  0
   -1.5689    1.7176    0.0000 H   0  0
   -1.8702    2.2778    0.0000 C   0  0
   -1.0157    2.7875    0.0000 C   0  0
    1.9884   -0.7817    0.0000 C   0  0
    2.5399   -1.3953    0.0000 C   0  0
    2.1267   -2.1094    0.0000 C   0  0
    1.3199   -1.9371    0.0000 S   0  0
    0.4420   -2.1714    0.0000 S   0  0
   -0.1717   -2.7228    0.0000 C   0  0
   -0.8857   -2.3096    0.0000 C   0  0
   -0.7134   -1.5028    0.0000 C   0  0
    4.7792    0.0000    0.0000 Br  0  5
  2  3  1  0
 10 12  1  0
  3  4  1  0
 10 13  1  0
  4  5  1  0
  1 14  1  6
  1  5  1  0
  4 15  1  1
  1  6  1  0
  5 16  1  0
  6  2  1  0
  5 17  1  0
 12 18  2  0
  4  7  1  0
  1  8  1  0
  7  8  1  0
 18 19  1  0
 19 20  2  0
 20 21  1  0
 21 12  1  0
 11 22  1  0
  2  9  1  6
  9 10  1  0
 22 23  1  0
 23 24  2  0
 24 25  1  0
 25 11  2  0
 10 11  1  0
M  CHG  2   5   1  26  -1
M  END