
          11280714522D 1   1.00000     0.00000     0

 33 37  0     0  0            999 V2000
    3.9875   -6.6792    0.0000 C   0  0  0  0  0  0           0  0  0
    4.6917   -6.2667    0.0000 C   0  0  0  0  0  0           0  0  0
    3.2667   -6.2667    0.0000 O   0  0  0  0  0  0           0  0  0
    3.9875   -7.5042    0.0000 C   0  0  0  0  0  0           0  0  0
    2.5542   -6.6875    0.0000 C   0  0  0  0  0  0           0  0  0
    2.5542   -7.5125    0.0000 C   0  0  0  0  0  0           0  0  0
    3.2667   -7.9250    0.0000 C   0  0  0  0  0  0           0  0  0
    4.6917   -5.4417    0.0000 C   0  0  0  0  0  0           0  0  0
   -2.4208   -5.5167    0.0000 N   0  0  0  0  0  0           0  0  0
    5.4125   -6.6750    0.0000 C   0  0  0  0  0  0           0  0  0
    1.8417   -6.2750    0.0000 C   0  0  0  0  0  0           0  0  0
    4.7042   -7.9167    0.0000 C   0  0  0  0  0  0           0  0  0
   -3.1458   -5.1292    0.0000 C   0  0  0  0  0  0           0  0  0
    5.4167   -7.5042    0.0000 C   0  0  0  0  0  0           0  0  0
    3.2750   -8.7500    0.0000 O   0  0  0  0  0  0           0  0  0
    3.9750   -5.0292    0.0000 O   0  0  0  0  0  0           0  0  0
   -1.7208   -5.0792    0.0000 C   0  0  0  0  0  0           0  0  0
   -3.1750   -4.3042    0.0000 C   0  0  0  0  0  0           0  0  0
    1.1292   -6.6875    0.0000 C   0  0  0  0  0  0           0  0  0
    1.8417   -5.4417    0.0000 C   0  0  0  0  0  0           0  0  0
   -2.4833   -3.8667    0.0000 C   0  0  0  0  0  0           0  0  0
   -0.2958   -5.0292    0.0000 O   0  0  0  0  0  0           0  0  0
    5.4042   -5.0250    0.0000 O   0  0  0  0  0  0           0  0  0
    0.4167   -5.4417    0.0000 C   0  0  0  0  0  0           0  0  0
    6.1292   -7.9125    0.0000 Br  0  0  0  0  0  0           0  0  0
   -0.9958   -5.4667    0.0000 C   0  0  0  0  0  0           0  0  0
   -1.7500   -4.2542    0.0000 C   0  0  0  0  0  0           0  0  0
    1.1375   -5.0292    0.0000 C   0  0  0  0  0  0           0  0  0
    0.4167   -6.2667    0.0000 C   0  0  0  0  0  0           0  0  0
   -3.8458   -5.5750    0.0000 C   0  0  0  0  0  0           0  0  0
   -3.9000   -3.9167    0.0000 C   0  0  0  0  0  0           0  0  0
   -4.5708   -5.1792    0.0000 C   0  0  0  0  0  0           0  0  0
   -4.6083   -4.3625    0.0000 C   0  0  0  0  0  0           0  0  0
  2  1  1  0     0  0
  3  1  1  0     0  0
  4  1  2  0     0  0
  5  3  1  0     0  0
  6  7  1  0     0  0
  7  4  1  0     0  0
  8  2  1  0     0  0
  9 17  2  0     0  0
 10  2  2  0     0  0
 11  5  1  0     0  0
 12  4  1  0     0  0
 13  9  1  0     0  0
 14 12  2  0     0  0
 15  7  2  0     0  0
 16  8  2  0     0  0
 17 26  1  0     0  0
 18 21  1  0     0  0
 19 11  2  0     0  0
 20 11  1  0     0  0
 21 27  2  0     0  0
 22 24  1  0     0  0
 23  8  1  0     0  0
 24 28  1  0     0  0
 25 14  1  0     0  0
 26 22  1  0     0  0
 27 17  1  0     0  0
 28 20  2  0     0  0
 29 19  1  0     0  0
 30 13  1  0     0  0
 31 18  1  0     0  0
 32 30  2  0     0  0
 33 31  2  0     0  0
 14 10  1  0     0  0
  6  5  2  0     0  0
 24 29  2  0     0  0
 13 18  2  0     0  0
 32 33  1  0     0  0
M  END