
          08180812482D 1   1.00000     0.00000     0

 19 20  0     0  0            999 V2000
    7.4824    1.0554    0.0000 N   0  0  0  0  0  0           0  0  0
    7.4835    0.2280    0.0000 C   0  0  0  0  0  0           0  0  0
    8.1995   -0.1829    0.0000 C   0  0  0  0  0  0           0  0  0
    8.1932    1.4701    0.0000 C   0  0  0  0  0  0           0  0  0
    8.9096    1.0629    0.0000 C   0  0  0  0  0  0           0  0  0
    8.9122    0.2319    0.0000 C   0  0  0  0  0  0           0  0  0
    9.6650    1.3944    0.0000 C   0  0  0  0  0  0           0  0  0
   10.3299    0.9058    0.0000 N   0  3  0  0  0  0           0  0  0
   10.3226    0.0815    0.0000 C   0  0  0  0  0  0           0  0  0
   11.1058   -0.1777    0.0000 C   0  0  0  0  0  0           0  0  0
   11.5943    0.4873    0.0000 S   0  0  0  0  0  0           0  0  0
   11.1129    1.1572    0.0000 C   0  0  0  0  0  0           0  0  0
    6.7698   -0.1858    0.0000 C   0  0  0  0  0  0           0  0  0
    8.1885    2.2951    0.0000 N   0  0  0  0  0  0           0  0  0
    9.6517   -0.3986    0.0000 C   0  0  0  0  0  0           0  0  0
   11.3565   -0.9636    0.0000 C   0  0  0  0  0  0           0  0  0
   12.1626   -1.1395    0.0000 C   0  0  0  0  0  0           0  0  0
   12.4133   -1.9255    0.0000 O   0  0  0  0  0  0           0  0  0
    9.7321   -1.2197    0.0000 O   0  0  0  0  0  0           0  0  0
 10 11  1  0     0  0
 11 12  1  0     0  0
 12  8  2  0     0  0
  2  3  1  0     0  0
  3  6  2  0     0  0
  5  7  1  0     0  0
  1  2  2  0     0  0
  7  8  1  0     0  0
  2 13  1  0     0  0
  8  9  1  0     0  0
  4 14  1  0     0  0
  9 15  1  0     0  0
  5  4  2  0     0  0
 10 16  1  0     0  0
  4  1  1  0     0  0
 16 17  1  0     0  0
  5  6  1  0     0  0
 17 18  1  0     0  0
  9 10  2  0     0  0
 15 19  1  0     0  0
M  CHG  1   8   1
M  END