
          11280715582D 1   1.00000     0.00000     0

 76 77  0     1  0            999 V2000
    6.9250   -4.6167    0.0000 C   0  0  0  0  0  0           0  0  0
    7.6667   -4.1750    0.0000 N   0  0  3  0  0  0           0  0  0
    2.4292   -4.6500    0.0000 C   0  0  0  0  0  0           0  0  0
    9.0917   -4.1500    0.0000 C   0  0  0  0  0  0           0  0  0
    0.9292   -4.6500    0.0000 N   0  0  0  0  0  0           0  0  0
    0.1792   -4.2167    0.0000 C   0  0  0  0  0  0           0  0  0
    4.6792   -4.2167    0.0000 C   0  0  0  0  0  0           0  0  0
   -2.0708   -4.6500    0.0000 C   0  0  0  0  0  0           0  0  0
    3.1792   -4.2167    0.0000 N   0  0  0  0  0  0           0  0  0
   -1.3208   -4.2167    0.0000 N   0  0  0  0  0  0           0  0  0
    1.6792   -4.2167    0.0000 C   0  0  1  0  0  0           0  0  0
    5.4292   -4.6500    0.0000 N   0  0  0  0  0  0           0  0  0
    8.9167   -3.2167    0.0000 N   0  0  0  0  0  0           0  0  0
    3.9292   -4.6500    0.0000 C   0  0  1  0  0  0           0  0  0
    8.3875   -4.5750    0.0000 C   0  0  2  0  0  0           0  0  0
    3.9292   -5.5167    0.0000 C   0  0  0  0  0  0           0  0  0
   -0.5708   -4.6500    0.0000 C   0  0  1  0  0  0           0  0  0
    6.1667   -4.2042    0.0000 C   0  0  1  0  0  0           0  0  0
   -2.8125   -4.2167    0.0000 C   0  0  2  0  0  0           0  0  0
    4.6750   -0.9292    0.0000 C   0  0  0  0  0  0           0  0  0
   13.4000   -3.5917    0.0000 C   0  0  0  0  0  0           0  0  0
   -3.5625   -5.5167    0.0000 C   0  0  0  0  0  0           0  0  0
   -3.5625   -4.6500    0.0000 N   0  0  0  0  0  0           0  0  0
    9.7667   -1.9875    0.0000 C   0  0  0  0  0  0           0  0  0
    3.7042   -6.3125    0.0000 C   0  0  0  0  0  0           0  0  0
    9.7000   -2.8417    0.0000 C   0  0  2  0  0  0           0  0  0
    3.9500   -0.5375    0.0000 N   0  0  0  0  0  0           0  0  0
   14.1792   -3.2167    0.0000 N   0  0  0  0  0  0           0  0  0
    6.9417   -5.4875    0.0000 O   0  0  0  0  0  0           0  0  0
    9.9042   -4.4917    0.0000 O   0  0  0  0  0  0           0  0  0
    2.4292   -5.5167    0.0000 O   0  0  0  0  0  0           0  0  0
    0.1792   -3.3542    0.0000 O   0  0  0  0  0  0           0  0  0
    4.6792   -3.3542    0.0000 O   0  0  0  0  0  0           0  0  0
   -2.0708   -5.5167    0.0000 O   0  0  0  0  0  0           0  0  0
   -2.8125   -3.3542    0.0000 C   0  0  0  0  0  0           0  0  0
   -0.5708   -5.5167    0.0000 C   0  0  0  0  0  0           0  0  0
    9.0625   -1.4917    0.0000 O   0  0  0  0  0  0           0  0  0
   -2.8125   -5.9500    0.0000 O   0  0  0  0  0  0           0  0  0
    2.9125   -6.5167    0.0000 O   0  0  0  0  0  0           0  0  0
   -4.2833   -5.9292    0.0000 C   0  0  0  0  0  0           0  0  0
    4.6917   -1.7542    0.0000 N   0  0  0  0  0  0           0  0  0
   12.6875   -3.0917    0.0000 N   0  0  0  0  0  0           0  0  0
   -4.2833   -6.7542    0.0000 C   0  0  3  0  0  0           0  0  0
   13.3250   -4.4542    0.0000 N   0  0  0  0  0  0           0  0  0
    5.3792   -0.5042    0.0000 N   0  0  0  0  0  0           0  0  0
   10.5542   -1.6167    0.0000 N   0  0  0  0  0  0           0  0  0
    1.6792   -3.3542    0.0000 C   0  0  3  0  0  0           0  0  0
    4.2875   -6.9000    0.0000 N   0  0  0  0  0  0           0  0  0
   -2.0708   -2.9167    0.0000 C   0  0  0  0  0  0           0  0  0
   -0.5708   -2.0542    0.0000 C   0  0  0  0  0  0           0  0  0
    0.1792   -5.9500    0.0000 C   0  0  0  0  0  0           0  0  0
    7.6500   -3.3500    0.0000 C   0  0  0  0  0  0           0  0  0
   -2.0708   -2.0542    0.0000 C   0  0  0  0  0  0           0  0  0
   -1.3208   -3.3542    0.0000 C   0  0  0  0  0  0           0  0  0
   -1.3208   -1.6250    0.0000 C   0  0  0  0  0  0           0  0  0
   -0.5708   -2.9167    0.0000 C   0  0  0  0  0  0           0  0  0
    0.1792   -1.6250    0.0000 O   0  0  0  0  0  0           0  0  0
    8.4042   -5.4000    0.0000 C   0  0  0  0  0  0           0  0  0
    6.1500   -3.3792    0.0000 C   0  0  0  0  0  0           0  0  0
   10.4042   -3.3417    0.0000 C   0  0  0  0  0  0           0  0  0
   -4.9958   -7.1667    0.0000 C   0  0  0  0  0  0           0  0  0
   -3.5708   -7.1667    0.0000 C   0  0  0  0  0  0           0  0  0
   -5.0833   -6.5417    0.0000 C   0  0  0  0  0  0           0  0  0
    5.4125   -2.1542    0.0000 C   0  0  0  0  0  0           0  0  0
   11.9042   -3.4667    0.0000 C   0  0  0  0  0  0           0  0  0
    0.9292   -2.9167    0.0000 C   0  0  0  0  0  0           0  0  0
    2.4292   -2.9167    0.0000 C   0  0  0  0  0  0           0  0  0
    0.1792   -0.7542    0.0000 C   0  0  0  0  0  0           0  0  0
    0.9292   -5.5167    0.0000 C   0  0  0  0  0  0           0  0  0
    0.1792   -6.8125    0.0000 C   0  0  0  0  0  0           0  0  0
    5.4292   -2.9792    0.0000 C   0  0  0  0  0  0           0  0  0
   11.1917   -2.9750    0.0000 C   0  0  0  0  0  0           0  0  0
    0.9292   -0.3250    0.0000 C   0  0  0  0  0  0           0  0  0
    0.9292   -7.2417    0.0000 C   0  0  0  0  0  0           0  0  0
    1.6792   -5.9500    0.0000 C   0  0  0  0  0  0           0  0  0
    1.6792   -6.8125    0.0000 C   0  0  0  0  0  0           0  0  0
  2  1  1  0     0  0
  3  9  1  0     0  0
  4 15  1  0     0  0
  5 11  1  0     0  0
  6  5  1  0     0  0
  7 12  1  0     0  0
  8 10  1  0     0  0
  9 14  1  0     0  0
 10 17  1  0     0  0
 11  3  1  0     0  0
 12 18  1  0     0  0
 13  4  1  0     0  0
 14  7  1  0     0  0
 15  2  1  0     0  0
 14 16  1  6     0  0
 17  6  1  0     0  0
 18  1  1  0     0  0
 19  8  1  0     0  0
 20 41  2  0     0  0
 21 42  2  0     0  0
 22 23  1  0     0  0
 23 19  1  0     0  0
 24 26  1  0     0  0
 25 16  1  0     0  0
 26 13  1  0     0  0
 27 20  1  0     0  0
 28 21  1  0     0  0
 29  1  2  0     0  0
 30  4  2  0     0  0
 31  3  2  0     0  0
 32  6  2  0     0  0
 33  7  2  0     0  0
 34  8  2  0     0  0
 19 35  1  6     0  0
 17 36  1  6     0  0
 37 24  2  0     0  0
 38 22  2  0     0  0
 39 25  2  0     0  0
 40 22  1  0     0  0
 41 64  1  0     0  0
 42 65  1  0     0  0
 43 40  1  0     0  0
 44 21  1  0     0  0
 45 20  1  0     0  0
 46 24  1  0     0  0
 11 47  1  1     0  0
 48 25  1  0     0  0
 49 35  1  0     0  0
 50 56  2  0     0  0
 51 36  1  0     0  0
 52  2  1  0     0  0
 53 49  1  0     0  0
 54 49  2  0     0  0
 55 53  2  0     0  0
 56 54  1  0     0  0
 57 50  1  0     0  0
 15 58  1  6     0  0
 18 59  1  1     0  0
 26 60  1  6     0  0
 61 43  1  0     0  0
 62 43  1  0     0  0
 63 43  1  0     0  0
 64 71  1  0     0  0
 65 72  1  0     0  0
 66 47  1  0     0  0
 67 47  1  0     0  0
 68 57  1  0     0  0
 69 51  1  0     0  0
 70 51  2  0     0  0
 71 59  1  0     0  0
 72 60  1  0     0  0
 73 68  1  0     0  0
 74 70  1  0     0  0
 75 69  2  0     0  0
 76 74  2  0     0  0
 75 76  1  0     0  0
 55 50  1  0     0  0
M  END