
          11280715522D 1   1.00000     0.00000     0

 42 45  0     0  0            999 V2000
   -4.6889  -13.8458    0.0000 C   0  0  0  0  0  0           0  0  0
   -4.6901  -14.6732    0.0000 C   0  0  0  0  0  0           0  0  0
   -3.9753  -15.0860    0.0000 C   0  0  0  0  0  0           0  0  0
   -3.9771  -13.4330    0.0000 C   0  0  0  0  0  0           0  0  0
   -3.2617  -13.8422    0.0000 C   0  0  0  0  0  0           0  0  0
   -3.2609  -14.6690    0.0000 C   0  0  0  0  0  0           0  0  0
   -2.5456  -15.0800    0.0000 N   0  0  0  0  0  0           0  0  0
   -1.8306  -14.6652    0.0000 C   0  0  0  0  0  0           0  0  0
   -1.8354  -13.8352    0.0000 C   0  0  0  0  0  0           0  0  0
   -2.5513  -13.4280    0.0000 C   0  0  0  0  0  0           0  0  0
   -3.9734  -15.9110    0.0000 O   0  0  0  0  0  0           0  0  0
   -3.2579  -16.3219    0.0000 C   0  0  0  0  0  0           0  0  0
   -3.2560  -17.1469    0.0000 C   0  0  0  0  0  0           0  0  0
   -3.9721  -17.5567    0.0000 C   0  0  0  0  0  0           0  0  0
   -3.9706  -18.3809    0.0000 C   0  0  0  0  0  0           0  0  0
   -3.2546  -18.7926    0.0000 C   0  0  0  0  0  0           0  0  0
   -2.5387  -18.3740    0.0000 C   0  0  0  0  0  0           0  0  0
   -2.5438  -17.5511    0.0000 C   0  0  0  0  0  0           0  0  0
   -4.6862  -17.1435    0.0000 Cl  0  0  0  0  0  0           0  0  0
   -1.8321  -17.1338    0.0000 Cl  0  0  0  0  0  0           0  0  0
   -1.1145  -15.0749    0.0000 C   0  0  0  0  0  0           0  0  0
   -1.8219  -18.7823    0.0000 S   0  0  3  0  0  0           0  0  0
   -1.1125  -19.1917    0.0000 N   0  0  0  0  0  0           0  0  0
   -1.4740  -18.1916    0.0000 O   0  0  0  0  0  0           0  0  0
   -2.2270  -19.3760    0.0000 O   0  0  0  0  0  0           0  0  0
   -0.3356  -18.7477    0.0000 C   0  0  3  0  0  0           0  0  0
    0.3125  -18.3583    0.0000 C   0  0  0  0  0  0           0  0  0
   -0.0129  -19.4600    0.0000 C   0  0  0  0  0  0           0  0  0
   -0.6278  -18.1298    0.0000 C   0  0  0  0  0  0           0  0  0
    0.3035  -17.5334    0.0000 O   0  0  0  0  0  0           0  0  0
    1.0314  -18.7630    0.0000 N   0  0  3  0  0  0           0  0  0
    1.0360  -19.5884    0.0000 C   0  0  0  0  0  0           0  0  0
    1.7509  -19.9930    0.0000 C   0  0  0  0  0  0           0  0  0
    2.4632  -19.5762    0.0000 N   0  0  3  0  0  0           0  0  0
    2.4562  -18.7503    0.0000 C   0  0  0  0  0  0           0  0  0
    1.7367  -18.3411    0.0000 C   0  0  0  0  0  0           0  0  0
    3.1806  -19.9836    0.0000 C   0  0  0  0  0  0           0  0  0
    3.8921  -19.5659    0.0000 C   0  0  0  0  0  0           0  0  0
    4.6095  -19.9733    0.0000 N   0  0  0  0  0  0           0  0  0
    5.3210  -19.5557    0.0000 C   0  0  0  0  0  0           0  0  0
    6.0384  -19.9631    0.0000 N   0  0  0  0  0  0           0  0  0
    5.3151  -18.7307    0.0000 N   0  0  0  0  0  0           0  0  0
 18 20  1  0     0  0
  9 10  2  0     0  0
  8 21  1  0     0  0
 10  5  1  0     0  0
 17 22  1  0     0  0
 22 23  1  0     0  0
  3 11  1  0     0  0
 22 24  2  0     0  0
  2  3  1  0     0  0
 22 25  2  0     0  0
 11 12  1  0     0  0
 23 26  1  0     0  0
  5  6  1  0     0  0
 26 27  1  0     0  0
 12 13  1  0     0  0
 26 28  1  0     0  0
  3  6  2  0     0  0
 26 29  1  0     0  0
 13 14  2  0     0  0
 27 30  2  0     0  0
  6  7  1  0     0  0
 27 31  1  0     0  0
 31 32  1  0     0  0
 14 15  1  0     0  0
  1  2  2  0     0  0
 15 16  2  0     0  0
  7  8  2  0     0  0
 16 17  1  0     0  0
 31 36  1  0     0  0
 32 33  1  0     0  0
 33 34  1  0     0  0
 34 35  1  0     0  0
 35 36  1  0     0  0
  5  4  2  0     0  0
 34 37  1  0     0  0
 17 18  2  0     0  0
 37 38  1  0     0  0
 18 13  1  0     0  0
 38 39  1  0     0  0
  8  9  1  0     0  0
 39 40  2  0     0  0
 14 19  1  0     0  0
 40 41  1  0     0  0
  4  1  1  0     0  0
 40 42  1  0     0  0
M  END