
  SciTegic09261414532D

 48 55  0  0  0  0            999 V2000
   29.0541  -11.2738    0.0000 O   0  0
   29.4720  -11.9826    0.0000 C   0  0
   30.2933  -11.9767    0.0000 C   0  0  1  0  0  0
   30.7070  -12.6856    0.0000 N   0  0
   30.3852  -13.4366    0.0000 C   0  0
   31.0006  -13.9791    0.0000 N   0  0
   31.5296  -12.7632    0.0000 C   0  0
   31.7075  -13.5638    0.0000 C   0  0
   32.4869  -13.8099    0.0000 C   0  0
   33.0889  -13.2606    0.0000 C   0  0
   32.9105  -12.4579    0.0000 C   0  0
   32.1314  -12.2113    0.0000 C   0  0
   30.6967  -11.2620    0.0000 C   0  0
   31.5147  -11.2597    0.0000 C   0  0
   31.9223  -10.5490    0.0000 C   0  0
   31.5079   -9.8377    0.0000 N   0  0
   30.6857   -9.8417    0.0000 C   0  0
   30.2777  -10.5569    0.0000 C   0  0
   29.5889  -13.6143    0.0000 C   0  0
   29.0323  -13.0065    0.0000 C   0  0
   28.2312  -13.1836    0.0000 C   0  0
   27.9856  -13.9680    0.0000 C   0  0
   28.5471  -14.5755    0.0000 C   0  0
   29.3462  -14.3952    0.0000 C   0  0
   22.6694  -10.1860    0.0000 C   0  0
   22.6683  -11.0096    0.0000 C   0  0
   23.3763  -11.4186    0.0000 C   0  0
   23.3746   -9.7730    0.0000 C   0  0
   24.0873  -10.1824    0.0000 C   0  0
   24.0921  -11.0051    0.0000 C   0  0
   24.8763  -11.2536    0.0000 N   0  0
   25.3577  -10.5843    0.0000 C   0  0
   24.8685   -9.9208    0.0000 N   0  0
   25.1374  -12.0334    0.0000 C   0  0
   24.5900  -12.6480    0.0000 C   0  0
   23.7872  -12.4802    0.0000 C   0  0
   23.2401  -13.0899    0.0000 C   0  0
   23.5011  -13.8707    0.0000 C   0  0
   24.3102  -14.0384    0.0000 C   0  0
   24.8497  -13.4233    0.0000 C   0  0
   26.1771  -10.5790    0.0000 N   0  0
   26.5892  -11.2900    0.0000 C   0  0
   27.4098  -11.2856    0.0000 C   0  0
   27.8191  -10.5708    0.0000 C   0  0
   27.3979   -9.8591    0.0000 C   0  0
   26.5787   -9.8670    0.0000 C   0  0
   28.6404  -10.5649    0.0000 C   0  0
   29.0439   -9.8501    0.0000 O   0  0
  1  2  1  0
  2  3  1  0
  3  4  1  0
  4  5  1  0
  5  6  2  0
  6  8  1  0
  7  4  1  0
  7  8  2  0
  8  9  1  0
  9 10  2  0
 10 11  1  0
 11 12  2  0
 12  7  1  0
  3 13  1  6
 13 14  1  0
 13 18  1  0
 14 15  1  0
 15 16  1  0
 16 17  1  0
 17 18  1  0
 19 20  2  0
 20 21  1  0
 21 22  2  0
 22 23  1  0
 23 24  2  0
 24 19  1  0
  5 19  1  0
 25 26  2  0
 26 27  1  0
 27 30  2  0
 29 28  2  0
 28 25  1  0
 29 30  1  0
 30 31  1  0
 31 32  1  0
 32 33  2  0
 33 29  1  0
 31 34  1  0
 34 35  1  0
 35 36  2  0
 36 37  1  0
 37 38  2  0
 38 39  1  0
 39 40  2  0
 40 35  1  0
 41 42  1  0
 42 43  1  0
 43 44  1  0
 44 45  1  0
 45 46  1  0
 46 41  1  0
 32 41  1  0
 44 47  1  0
 47  1  1  0
 47 48  2  0
M  END