
  SciTegic07111213592D

 21 23  0  0  0  0            999 V2000
    4.8125   -0.2292    0.0000 C   0  0
    5.5292   -0.6417    0.0000 C   0  0
    6.2417    0.6083    0.0000 C   0  0
    6.2500   -0.2208    0.0000 C   0  0
    4.8042    0.6000    0.0000 C   0  0
    5.5250    1.0208    0.0000 O   0  0
    4.0917   -0.6417    0.0000 C   0  0
    6.9542    1.0208    0.0000 C   0  0
    4.0917    1.0083    0.0000 C   0  0
    3.3792   -0.2292    0.0000 C   0  0
    6.9542    1.8458    0.0000 C   0  0
    7.6625    2.2583    0.0000 C   0  0
    3.3792    0.5958    0.0000 C   0  0
    5.5292   -1.4667    0.0000 O   0  0
    8.3792    1.8500    0.0000 C   0  0
    7.6750    0.6083    0.0000 C   0  0
    8.3875    1.0250    0.0000 C   0  0
    4.0917   -1.4667    0.0000 O   0  0
    7.6542    3.0833    0.0000 O   0  0
    9.0917    2.2667    0.0000 O   0  0
    2.6667    1.0083    0.0000 O   0  0
  2  1  1  0
  3  6  1  0
  4  2  1  0
  5  1  1  0
  6  5  1  0
  7  1  2  0
  8  3  1  0
  9  5  2  0
 10  7  1  0
 11  8  1  0
 12 11  2  0
 13 10  2  0
 14  2  2  0
 15 17  2  0
 16  8  2  0
 17 16  1  0
 18  7  1  0
 19 12  1  0
 20 15  1  0
 21 13  1  0
  4  3  2  0
  9 13  1  0
 12 15  1  0
M  END