
  Mrv0541 05211314572D          

 23 23  0  0  0  0            999 V2000
    0.6375    0.4547    0.0000 C   0  0  0  0  0  0  0  0  0  0  0  0
    1.4625    0.4547    0.0000 C   0  0  0  0  0  0  0  0  0  0  0  0
    1.8750   -0.2598    0.0000 O   0  0  0  0  0  0  0  0  0  0  0  0
    1.8750    1.1691    0.0000 C   0  0  0  0  0  0  0  0  0  0  0  0
    1.4625    1.8836    0.0000 C   0  0  0  0  0  0  0  0  0  0  0  0
    1.8750    2.5981    0.0000 C   0  0  0  0  0  0  0  0  0  0  0  0
    2.7000    2.5981    0.0000 N   0  0  0  0  0  0  0  0  0  0  0  0
    3.1125    1.8836    0.0000 C   0  0  0  0  0  0  0  0  0  0  0  0
    2.7000    1.1691    0.0000 C   0  0  0  0  0  0  0  0  0  0  0  0
    0.2250   -0.2598    0.0000 N   0  0  0  0  0  0  0  0  0  0  0  0
   -0.6000   -0.2598    0.0000 C   0  0  0  0  0  0  0  0  0  0  0  0
    0.6375   -0.9743    0.0000 C   0  0  0  0  0  0  0  0  0  0  0  0
    1.4625   -0.9743    0.0000 C   0  0  0  0  0  0  0  0  0  0  0  0
    1.8750   -1.6887    0.0000 C   0  0  0  0  0  0  0  0  0  0  0  0
   -1.0125   -0.9743    0.0000 C   0  0  0  0  0  0  0  0  0  0  0  0
   -1.8375   -0.9743    0.0000 C   0  0  0  0  0  0  0  0  0  0  0  0
   -2.2500   -1.6887    0.0000 C   0  0  0  0  0  0  0  0  0  0  0  0
   -3.0750   -1.6887    0.0000 C   0  0  0  0  0  0  0  0  0  0  0  0
   -3.4875   -0.9743    0.0000 C   0  0  0  0  0  0  0  0  0  0  0  0
   -3.0750   -0.2598    0.0000 C   0  0  0  0  0  0  0  0  0  0  0  0
   -2.2500   -0.2598    0.0000 C   0  0  0  0  0  0  0  0  0  0  0  0
   -4.3125   -0.9743    0.0000 Cl  0  0  0  0  0  0  0  0  0  0  0  0
    5.3518    0.0000    0.0000 Br  0  0  0  0  0  0  0  0  0  0  0  0
  1  2  1  0  0  0  0
  2  3  1  0  0  0  0
  2  4  1  0  0  0  0
  4  5  2  0  0  0  0
  5  6  1  0  0  0  0
  6  7  2  0  0  0  0
  7  8  1  0  0  0  0
  4  9  1  0  0  0  0
  8  9  2  0  0  0  0
  1 10  1  0  0  0  0
 10 11  1  0  0  0  0
 10 12  1  0  0  0  0
 12 13  1  0  0  0  0
 13 14  1  0  0  0  0
 11 15  1  0  0  0  0
 15 16  1  0  0  0  0
 16 17  2  0  0  0  0
 17 18  1  0  0  0  0
 18 19  2  0  0  0  0
 19 20  1  0  0  0  0
 16 21  1  0  0  0  0
 20 21  2  0  0  0  0
 19 22  1  0  0  0  0
M  END