
  SciTegic05171617272D

 30 34  0  0  0  0            999 V2000
   -3.6251    2.6919    0.0000 C   0  0
   -3.6187    1.4919    0.0000 O   0  0
   -2.3155    0.7475    0.0000 C   0  0
   -2.3155   -0.7475    0.0000 C   0  0
   -1.0028   -1.5132    0.0000 C   0  0
    0.2917   -0.7475    0.0000 C   0  0
    1.7138   -1.2033    0.0000 C   0  0
    2.5889    0.0182    0.0000 C   0  0
    1.7138    1.2033    0.0000 C   0  0
    0.2917    0.7475    0.0000 C   0  0
   -1.0028    1.5132    0.0000 C   0  0
    2.1855   -2.6254    0.0000 N   0  0
    3.6552   -2.9294    0.0000 C   0  0
    4.4530   -2.0330    0.0000 O   0  0
    4.1277   -4.3539    0.0000 C   0  0
    5.5974   -4.6579    0.0000 O   0  0
    6.0699   -6.0824    0.0000 C   0  0
    7.5363   -6.3792    0.0000 C   0  0
    8.0259   -7.8179    0.0000 C   0  0
    9.2012   -8.0600    0.0000 C   0  0
    7.0181   -8.9343    0.0000 C   0  0
    7.1821  -10.4186    0.0000 C   0  0
    5.8110  -11.0334    0.0000 N   0  0
    4.8235   -9.9402    0.0000 N   0  0
    3.6311  -10.0745    0.0000 C   0  0
    5.5529   -8.6371    0.0000 C   0  0
    5.0598   -7.2163    0.0000 N   0  0
    8.4848  -11.1638    0.0000 C   0  0
    9.2684  -12.3451    0.0000 C   0  0
    9.8929  -10.9812    0.0000 C   0  0
  1  2  1  0
  2  3  1  0
  3  4  2  0
  4  5  1  0
  5  6  2  0
  6  7  1  0
  7  8  1  0
  8  9  1  0
  9 10  1  0
  6 10  1  0
 10 11  2  0
  3 11  1  0
  7 12  1  0
 12 13  1  0
 13 14  2  0
 13 15  1  0
 15 16  1  0
 16 17  1  0
 17 18  2  0
 18 19  1  0
 19 20  1  0
 19 21  2  0
 21 22  1  0
 22 23  2  0
 23 24  1  0
 24 25  1  0
 24 26  1  0
 21 26  1  0
 26 27  2  0
 17 27  1  0
 22 28  1  0
 28 29  1  0
 29 30  1  0
 28 30  1  0
M  END