
  SciTegic11201309402D

 72 74  0  0  1  0            999 V2000
    6.9417   -6.7875    0.0000 N   0  0
    7.0292   -7.6042    0.0000 C   0  0  2  0  0  0
    5.3375   -5.0042    0.0000 N   0  0
    1.7500   -7.3375    0.0000 N   0  0
    2.9500   -5.2542    0.0000 N   0  0
    6.6042   -6.0292    0.0000 C   0  0
    2.3292   -5.8042    0.0000 C   0  0
    1.8292   -8.1542    0.0000 C   0  0
    7.8542   -7.6542    0.0000 C   0  0
    4.5292   -4.8292    0.0000 C   0  0
    6.0542   -5.4167    0.0000 C   0  0  2  0  0  0
    2.7250   -9.5250    0.0000 N   0  0
    1.9167   -6.5250    0.0000 C   0  0  2  0  0  0
    2.1667   -8.9125    0.0000 C   0  0  2  0  0  0
    8.2292   -8.3875    0.0000 N   0  0
    6.5667   -4.7750    0.0000 C   0  0
    3.7042   -4.9167    0.0000 C   0  0  1  0  0  0
    3.4417   -9.9375    0.0000 C   0  0
    9.6292   -7.9292    0.0000 C   0  0
    9.7875   -5.7500    0.0000 C   0  0
   13.5667   -6.0250    0.0000 C   0  0
    9.4167   -7.1375    0.0000 N   0  0
    7.3667   -4.5542    0.0000 C   0  0
   10.3750   -5.1667    0.0000 N   0  0
    6.4417   -9.1292    0.0000 S   0  0
    9.0417   -8.5167    0.0000 C   0  0
    5.8292   -9.6875    0.0000 S   0  0
   10.0000   -6.5500    0.0000 C   0  0  2  0  0  0
   10.7417   -3.7792    0.0000 C   0  0
    3.8625   -2.7375    0.0000 C   0  0
   14.1542   -5.4417    0.0000 N   0  0
    7.3000   -5.5792    0.0000 O   0  0
    1.6917   -5.2875    0.0000 O   0  0
    1.0375   -8.3667    0.0000 O   0  0
    4.5667   -4.0042    0.0000 O   0  0
    8.3042   -6.9625    0.0000 O   0  0
    6.8542   -8.4167    0.0000 C   0  0
    1.4750   -9.3625    0.0000 C   0  0
    1.1500   -6.2292    0.0000 C   0  0
    4.2500  -10.1125    0.0000 C   0  0
    8.9875   -5.5375    0.0000 O   0  0
   10.4292   -8.1500    0.0000 O   0  0
    3.1417  -10.7125    0.0000 O   0  0
    7.9542   -5.1292    0.0000 O   0  0
   11.5417   -4.0000    0.0000 O   0  0
    3.0625   -2.5167    0.0000 O   0  0
    3.4917   -4.1167    0.0000 C   0  0
   12.7667   -5.8125    0.0000 N   0  0
   10.1542   -4.3667    0.0000 C   0  0
   13.7792   -6.8167    0.0000 N   0  0
    7.5667   -3.7542    0.0000 N   0  0
    4.0750   -3.5292    0.0000 C   0  0
    0.6500   -9.3625    0.0000 C   0  0
    4.4417   -2.1500    0.0000 N   0  0
   10.5292   -2.9875    0.0000 N   0  0
   -1.0083   -9.3542    0.0000 C   0  0
    0.5625   -5.6417    0.0000 C   0  0
    5.0667  -10.0250    0.0000 C   0  0
    0.2375  -10.0750    0.0000 C   0  0
    0.2375   -8.6417    0.0000 C   0  0
   -0.5958   -8.6375    0.0000 C   0  0
   -0.5875  -10.0792    0.0000 C   0  0
   -1.8333   -9.3542    0.0000 O   0  0
    7.8542   -9.1292    0.0000 C   0  0
   10.8000   -6.7667    0.0000 C   0  0
   12.1792   -6.3917    0.0000 C   0  0
    0.7792   -4.8292    0.0000 C   0  0
   -0.2375   -5.8542    0.0000 C   0  0
   11.3875   -6.1792    0.0000 C   0  0
   -0.8333   -5.2667    0.0000 C   0  0
    0.1917   -4.2417    0.0000 C   0  0
   -0.6208   -4.4625    0.0000 C   0  0
  2  1  1  0
  3 11  1  0
  4 13  1  0
  5 17  1  0
  6  1  1  0
  7  5  1  0
  8  4  1  0
  2  9  1  6
 10  3  1  0
 11  6  1  0
 12 18  1  0
 13  7  1  0
 14 12  1  0
 15  9  1  0
 11 16  1  1
 17 10  1  0
 18 40  1  0
 19 26  1  0
 20 28  1  0
 21 48  2  0
 22 19  1  0
 23 16  1  0
 24 20  1  0
 25 37  1  0
 26 15  1  0
 27 25  1  0
 28 22  1  1
 29 49  1  0
 30 52  1  0
 31 21  1  0
 32  6  2  0
 33  7  2  0
 34  8  2  0
 35 10  2  0
 36  9  2  0
  2 37  1  0
 14 38  1  6
 13 39  1  1
 40 58  1  0
 41 20  2  0
 42 19  2  0
 43 18  2  0
 44 23  2  0
 45 29  2  0
 46 30  2  0
 17 47  1  6
 48 66  1  0
 49 24  1  0
 50 21  1  0
 51 23  1  0
 52 47  1  0
 53 38  1  0
 54 30  1  0
 55 29  1  0
 56 61  2  0
 57 39  1  0
 58 27  1  0
 59 53  1  0
 60 53  2  0
 61 60  1  0
 62 59  2  0
 63 56  1  0
 64 15  1  0
 28 65  1  0
 66 69  1  0
 67 57  2  0
 68 57  1  0
 69 65  1  0
 70 68  2  0
 71 67  1  0
 72 70  1  0
 14  8  1  0
 71 72  2  0
 62 56  1  0
M  END