
          11280715172D 1   1.00000     0.00000     0

 38 42  0     0  0            999 V2000
   -3.0708    0.6208    0.0000 C   0  0  0  0  0  0           0  0  0
   -3.8250    0.2833    0.0000 N   0  0  3  0  0  0           0  0  0
   -4.3833    0.8958    0.0000 N   0  0  0  0  0  0           0  0  0
   -3.1625    1.4375    0.0000 C   0  0  0  0  0  0           0  0  0
   -3.9708    1.6083    0.0000 C   0  0  0  0  0  0           0  0  0
   -2.3583    0.2083    0.0000 N   0  0  0  0  0  0           0  0  0
   -1.6458    0.6208    0.0000 C   0  0  0  0  0  0           0  0  0
   -0.2125    0.6250    0.0000 C   0  0  0  0  0  0           0  0  0
   -0.9333    0.2125    0.0000 N   0  0  0  0  0  0           0  0  0
    0.5042    0.2208    0.0000 C   0  0  0  0  0  0           0  0  0
    1.2167    0.6333    0.0000 C   0  0  0  0  0  0           0  0  0
   -4.3083    2.3625    0.0000 C   0  0  3  0  0  0           0  0  0
    2.6417    3.9208    0.0000 N   0  0  3  0  0  0           0  0  0
   -3.9958   -0.5250    0.0000 C   0  0  0  0  0  0           0  0  0
    1.2125    1.4458    0.0000 C   0  0  0  0  0  0           0  0  0
   -1.6458    1.4458    0.0000 O   0  0  0  0  0  0           0  0  0
   -0.2125    1.4500    0.0000 C   0  0  0  0  0  0           0  0  0
    0.5000    1.8625    0.0000 C   0  0  0  0  0  0           0  0  0
    2.6417    5.5667    0.0000 O   0  0  0  0  0  0           0  0  0
    1.9292    1.8583    0.0000 O   0  0  0  0  0  0           0  0  0
    2.6417    3.0958    0.0000 C   0  0  0  0  0  0           0  0  0
    1.9292    2.6833    0.0000 C   0  0  0  0  0  0           0  0  0
    3.3542    4.3292    0.0000 C   0  0  0  0  0  0           0  0  0
    1.9292    4.3292    0.0000 C   0  0  0  0  0  0           0  0  0
    0.5042   -0.6000    0.0000 C   0  0  0  0  0  0           0  0  0
    1.9250    0.2250    0.0000 C   0  0  0  0  0  0           0  0  0
   -3.8250    3.0250    0.0000 C   0  0  0  0  0  0           0  0  0
   -5.1333    2.4458    0.0000 C   0  0  0  0  0  0           0  0  0
   -4.7250    3.0833    0.0000 C   0  0  0  0  0  0           0  0  0
    1.9292    5.1542    0.0000 C   0  0  0  0  0  0           0  0  0
    3.3542    5.1542    0.0000 C   0  0  0  0  0  0           0  0  0
   -4.7833   -0.7792    0.0000 C   0  0  0  0  0  0           0  0  0
   -3.3833   -1.0750    0.0000 C   0  0  0  0  0  0           0  0  0
    1.9292   -0.5917    0.0000 C   0  0  0  0  0  0           0  0  0
    1.2167   -1.0042    0.0000 C   0  0  0  0  0  0           0  0  0
   -3.5458   -1.8792    0.0000 C   0  0  0  0  0  0           0  0  0
   -4.9458   -1.5917    0.0000 C   0  0  0  0  0  0           0  0  0
   -4.3333   -2.1417    0.0000 C   0  0  0  0  0  0           0  0  0
  2  1  1  0     0  0
  3  2  1  0     0  0
  4  1  2  0     0  0
  5  4  1  0     0  0
  6  1  1  0     0  0
  7  6  1  0     0  0
  8  9  1  0     0  0
  9  7  1  0     0  0
 10  8  2  0     0  0
 11 10  1  0     0  0
 12  5  1  0     0  0
 13 21  1  0     0  0
 14  2  1  0     0  0
 15 18  1  0     0  0
 16  7  2  0     0  0
 17  8  1  0     0  0
 18 17  2  0     0  0
 19 30  1  0     0  0
 20 15  1  0     0  0
 21 22  1  0     0  0
 22 20  1  0     0  0
 23 13  1  0     0  0
 24 13  1  0     0  0
 25 10  1  0     0  0
 26 11  1  0     0  0
 27 12  1  0     0  0
 28 12  1  0     0  0
 29 12  1  0     0  0
 30 24  1  0     0  0
 31 23  1  0     0  0
 32 14  2  0     0  0
 33 14  1  0     0  0
 34 35  1  0     0  0
 35 25  2  0     0  0
 36 33  2  0     0  0
 37 32  1  0     0  0
 38 36  1  0     0  0
  3  5  2  0     0  0
 38 37  2  0     0  0
 15 11  2  0     0  0
 26 34  2  0     0  0
 19 31  1  0     0  0
M  END