
  SciTegic05071317032D

 28 26  0  0  0  0            999 V2000
   35.2784   -9.9533    0.0000 N   0  0
   35.9942  -10.3662    0.0000 C   0  0
   36.7050   -9.9546    0.0000 C   0  0
   36.7061   -9.1292    0.0000 N   0  0
   35.9903   -8.7172    0.0000 C   0  0
   35.2733   -9.1306    0.0000 C   0  0
   37.4205   -8.7167    0.0000 C   0  0
   38.1350   -9.1293    0.0000 C   0  0
   27.4265  -10.3912    0.0000 C   0  0
   27.4254  -11.2185    0.0000 C   0  0
   28.1401  -11.6314    0.0000 C   0  0
   28.8566  -11.2180    0.0000 C   0  0
   28.8537  -10.3876    0.0000 C   0  0
   28.1383   -9.9784    0.0000 C   0  0
   29.5665   -9.9723    0.0000 O   0  0
   30.2826  -10.3821    0.0000 C   0  0
   30.9954   -9.9670    0.0000 C   0  0
   31.7114  -10.3768    0.0000 C   0  0
   32.4243   -9.9615    0.0000 C   0  0
   33.1403  -10.3714    0.0000 C   0  0
   33.8531   -9.9562    0.0000 C   0  0
   34.5692  -10.3660    0.0000 C   0  0
   38.1350   -9.9542    0.0000 C   0  0
   38.8494  -10.3667    0.0000 C   0  0
   38.8494  -11.1916    0.0000 N   0  0
   34.4594  -12.0698    0.0000 Cl  0  0
   36.9188  -11.6973    0.0000 Cl  0  0
   36.3295  -13.1705    0.0000 Cl  0  0
  1  2  1  0
  1  6  1  0
  2  3  1  0
  3  4  1  0
  4  5  1  0
  5  6  1  0
  4  7  1  0
  7  8  1  0
  9 10  2  0
 10 11  1  0
 11 12  2  0
 12 13  1  0
 13 14  2  0
 14  9  1  0
 13 15  1  0
 15 16  1  0
 16 17  1  0
 17 18  1  0
 18 19  1  0
 19 20  1  0
 20 21  1  0
 21 22  1  0
 22  1  1  0
  8 23  1  0
 23 24  1  0
 24 25  1  0
M  END