
  SciTegic09261414532D

 48 55  0  0  0  0            999 V2000
   19.9343  -27.2137    0.0000 N   0  0
   19.1486  -27.4210    0.0000 C   0  0
   19.1040  -28.2371    0.0000 N   0  0
   20.3816  -27.8964    0.0000 C   0  0
   19.8664  -28.5263    0.0000 C   0  0
   20.1545  -29.2853    0.0000 C   0  0
   20.9575  -29.4156    0.0000 C   0  0
   21.4716  -28.7808    0.0000 C   0  0
   21.1807  -28.0243    0.0000 C   0  0
   18.3885  -27.1261    0.0000 C   0  0
   18.2669  -26.3169    0.0000 C   0  0
   17.5067  -26.0192    0.0000 C   0  0
   16.8674  -26.5297    0.0000 C   0  0
   16.9935  -27.3414    0.0000 C   0  0
   17.7537  -27.6354    0.0000 C   0  0
   12.6692  -24.6395    0.0000 C   0  0
   12.6680  -25.4591    0.0000 C   0  0
   13.3761  -25.8680    0.0000 C   0  0
   13.3743  -24.2307    0.0000 C   0  0
   14.0829  -24.6359    0.0000 C   0  0
   14.0832  -25.4591    0.0000 C   0  0
   14.8661  -25.7133    0.0000 N   0  0
   15.3498  -25.0471    0.0000 C   0  0
   14.8657  -24.3814    0.0000 N   0  0
   15.1189  -26.4904    0.0000 C   0  0
   16.1638  -25.0454    0.0000 N   0  0
   16.5720  -25.7546    0.0000 C   0  0
   17.3885  -25.7547    0.0000 C   0  0
   17.7976  -25.0463    0.0000 N   0  0
   17.3844  -24.3364    0.0000 C   0  0
   16.5693  -24.3398    0.0000 C   0  0
   18.6148  -25.0449    0.0000 C   0  0
   19.0246  -25.7519    0.0000 O   0  0
   19.8418  -25.7506    0.0000 C   0  0
   14.5722  -27.0978    0.0000 C   0  0
   13.7747  -26.9268    0.0000 C   0  0
   13.2283  -27.5334    0.0000 C   0  0
   13.4809  -28.3115    0.0000 C   0  0
   14.2849  -28.4795    0.0000 C   0  0
   14.8278  -27.8715    0.0000 C   0  0
   20.2516  -26.4576    0.0000 C   0  0
   19.0222  -24.3365    0.0000 O   0  0
   21.0659  -26.4070    0.0000 C   0  0
   21.5147  -27.0883    0.0000 C   0  0
   22.3257  -27.0398    0.0000 C   0  0
   22.6929  -26.3108    0.0000 N   0  0
   22.2430  -25.6290    0.0000 C   0  0
   21.4259  -25.6762    0.0000 C   0  0
  1  2  1  0
  2  3  2  0
  3  5  1  0
  4  1  1  0
  4  5  2  0
  5  6  1  0
  6  7  2  0
  7  8  1  0
  8  9  2  0
  9  4  1  0
 10 11  2  0
 11 12  1  0
 12 13  2  0
 13 14  1  0
 14 15  2  0
 15 10  1  0
  2 10  1  0
 16 17  2  0
 17 18  1  0
 18 21  2  0
 20 19  2  0
 19 16  1  0
 20 21  1  0
 21 22  1  0
 22 23  1  0
 23 24  2  0
 24 20  1  0
 22 25  1  0
 26 27  1  0
 27 28  1  0
 28 29  1  0
 29 30  1  0
 30 31  1  0
 31 26  1  0
 23 26  1  0
 29 32  1  0
 32 33  1  0
 33 34  1  0
 25 35  1  0
 35 36  2  0
 36 37  1  0
 37 38  2  0
 38 39  1  0
 39 40  2  0
 40 35  1  0
 34 41  1  0
 41  1  1  0
 32 42  2  0
 41 43  1  0
 43 44  1  0
 43 48  1  0
 44 45  1  0
 45 46  1  0
 46 47  1  0
 47 48  1  0
M  END