
  SciTegic11201309402D

 37 40  0  0  0  0            999 V2000
   -4.0955   -1.6500    0.0000 N   0  0
   -3.3811   -1.2375    0.0000 C   0  0  2  0  0  0
   -2.6666   -1.6500    0.0000 C   0  0
   -3.3811   -0.4125    0.0000 C   0  0
   -4.0955    0.0000    0.0000 C   0  0
   -4.0955    0.8250    0.0000 C   0  0
   -4.8100    1.2375    0.0000 C   0  0
   -5.5245    0.8250    0.0000 C   0  0
   -5.5245    0.0000    0.0000 C   0  0
   -4.8100   -0.4125    0.0000 C   0  0
   -3.3810    1.2375    0.0000 C   0  0
   -4.8100   -1.2375    0.0000 C   0  0
   -6.2389    1.2375    0.0000 O   0  0
   -1.9521   -1.2375    0.0000 N   0  0
   -2.6666   -2.4750    0.0000 O   0  0
   -1.2376   -1.6500    0.0000 C   0  0  1  0  0  0
   -0.5232   -1.2375    0.0000 C   0  0
   -0.5231   -0.4125    0.0000 C   0  0
   -1.2376    0.0000    0.0000 C   0  0
   -1.9521   -0.4125    0.0000 C   0  0
   -1.2376    0.8250    0.0000 C   0  0
   -0.5231    1.2375    0.0000 C   0  0
    0.1914    0.8250    0.0000 C   0  0
    0.1914    0.0000    0.0000 C   0  0
   -1.2376   -2.4750    0.0000 C   0  0
   -0.5232   -2.8875    0.0000 N   0  0
   -1.9521   -2.8875    0.0000 O   0  0
    0.1913   -2.4750    0.0000 C   0  0
    0.9058   -2.8875    0.0000 C   0  0
    1.6202   -2.4750    0.0000 N   0  0
    0.9058   -3.7125    0.0000 O   0  0
    2.3347   -2.8875    0.0000 C   0  0
    2.3347   -3.7125    0.0000 C   0  0
    3.0492   -4.1250    0.0000 C   0  0
    3.7637   -3.7125    0.0000 C   0  0
    3.7637   -2.8875    0.0000 C   0  0
    3.0492   -2.4750    0.0000 C   0  0
  2  1  1  1
  2  3  1  0
  2  4  1  0
  4  5  1  0
  5  6  2  0
  5 10  1  0
  6  7  1  0
  7  8  2  0
  8  9  1  0
  9 10  2  0
  6 11  1  0
 10 12  1  0
  8 13  1  0
  3 14  1  0
  3 15  2  0
 16 14  1  0
 20 14  1  0
 16 17  1  0
 17 18  1  0
 19 20  1  0
 18 24  2  0
 18 19  1  0
 19 21  2  0
 21 22  1  0
 22 23  2  0
 23 24  1  0
 16 25  1  1
 25 26  1  0
 25 27  2  0
 26 28  1  0
 28 29  1  0
 29 30  1  0
 29 31  2  0
 30 32  1  0
 32 33  1  0
 32 37  2  0
 33 34  2  0
 34 35  1  0
 35 36  2  0
 36 37  1  0
M  END