
          11280715262D 1   1.00000     0.00000     0

 16 16  0     0  0            999 V2000
    2.2042   -2.3042    0.0000 N   0  0  0  0  0  0           0  0  0
    2.0667   -3.6167    0.0000 N   0  0  0  0  0  0           0  0  0
    1.6542   -2.9042    0.0000 C   0  0  0  0  0  0           0  0  0
    2.9542   -2.6417    0.0000 C   0  0  0  0  0  0           0  0  0
    2.8667   -3.4542    0.0000 C   0  0  0  0  0  0           0  0  0
    7.9625   -2.2417    0.0000 C   0  0  3  0  0  0           0  0  0
    7.2417   -2.6542    0.0000 C   0  0  0  0  0  0           0  0  0
    5.8167   -2.6417    0.0000 O   0  0  0  0  0  0           0  0  0
    3.6750   -2.2292    0.0000 C   0  0  0  0  0  0           0  0  0
    6.5292   -2.2417    0.0000 C   0  0  3  0  0  0           0  0  0
    8.6750   -2.6542    0.0000 C   0  0  0  0  0  0           0  0  0
    7.9625   -1.4167    0.0000 C   0  0  0  0  0  0           0  0  0
    8.6750   -1.8292    0.0000 C   0  0  0  0  0  0           0  0  0
    5.1042   -2.2292    0.0000 C   0  0  0  0  0  0           0  0  0
    4.3875   -2.6417    0.0000 C   0  0  0  0  0  0           0  0  0
    6.5292   -1.4167    0.0000 C   0  0  0  0  0  0           0  0  0
  2  3  1  0     0  0
  3  1  2  0     0  0
  4  1  1  0     0  0
  5  4  2  0     0  0
  6  7  1  0     0  0
  7 10  1  0     0  0
  8 14  1  0     0  0
  9  4  1  0     0  0
 10  8  1  0     0  0
 11  6  1  0     0  0
 12  6  1  0     0  0
 13  6  1  0     0  0
 14 15  1  0     0  0
 15  9  1  0     0  0
 16 10  1  0     0  0
  5  2  1  0     0  0
M  END