
          11280715352D 1   1.00000     0.00000     0

 26 25  0     0  0            999 V2000
   -0.6250   -5.2750    0.0000 C   0  0  0  0  0  0           0  0  0
   -1.0375   -5.9917    0.0000 C   0  0  0  0  0  0           0  0  0
    2.0917   -0.5500    0.0000 N   0  0  0  0  0  0           0  0  0
   -0.6250   -6.7125    0.0000 O   0  0  0  0  0  0           0  0  0
   -1.0375   -4.5542    0.0000 O   0  0  0  0  0  0           0  0  0
    2.0667   -4.2292    0.0000 N   0  0  0  0  0  0           0  0  0
    2.0917   -1.3750    0.0000 O   0  0  0  0  0  0           0  0  0
    1.3667   -0.1417    0.0000 C   0  0  0  0  0  0           0  0  0
    2.0792   -2.8042    0.0000 C   0  0  3  0  0  0           0  0  0
   -1.8708   -5.9917    0.0000 O   0  0  0  0  0  0           0  0  0
    0.2042   -5.2750    0.0000 O   0  0  0  0  0  0           0  0  0
    2.4917   -2.0917    0.0000 C   0  0  0  0  0  0           0  0  0
    2.4792   -3.5167    0.0000 C   0  0  0  0  0  0           0  0  0
    0.6542   -0.5542    0.0000 C   0  0  0  0  0  0           0  0  0
   -0.0583   -0.1417    0.0000 C   0  0  0  0  0  0           0  0  0
    1.2542   -2.7917    0.0000 O   0  0  0  0  0  0           0  0  0
   -0.7708   -0.5625    0.0000 C   0  0  0  0  0  0           0  0  0
    2.4792   -4.9500    0.0000 C   0  0  3  0  0  0           0  0  0
    1.3667    0.6833    0.0000 C   0  0  0  0  0  0           0  0  0
   -1.4833   -0.1500    0.0000 C   0  0  0  0  0  0           0  0  0
   -0.7708   -1.3917    0.0000 C   0  0  0  0  0  0           0  0  0
    3.3042   -4.9542    0.0000 C   0  0  0  0  0  0           0  0  0
    2.0542   -5.6625    0.0000 C   0  0  0  0  0  0           0  0  0
   -2.1958   -0.5667    0.0000 C   0  0  0  0  0  0           0  0  0
   -1.4833   -1.8042    0.0000 C   0  0  0  0  0  0           0  0  0
   -2.1958   -1.3917    0.0000 C   0  0  0  0  0  0           0  0  0
  2  1  1  0     0  0
  4  2  2  0     0  0
  5  1  2  0     0  0
  6 13  1  0     0  0
  7  3  1  0     0  0
  8  3  2  0     0  0
  9 12  1  0     0  0
 10  2  1  0     0  0
 11  1  1  0     0  0
 12  7  1  0     0  0
 13  9  1  0     0  0
 14  8  1  0     0  0
 15 14  1  0     0  0
 16  9  1  0     0  0
 17 15  1  0     0  0
 18  6  1  0     0  0
 19  8  1  0     0  0
 20 17  2  0     0  0
 21 17  1  0     0  0
 22 18  1  0     0  0
 23 18  1  0     0  0
 24 20  1  0     0  0
 25 21  2  0     0  0
 26 25  1  0     0  0
 24 26  2  0     0  0
M  END