
  Mrv0541 04051115152D          

 42 45  0  0  0  0            999 V2000
    0.2371    0.6266    0.0000 N   0  0  0  0  0  0  0  0  0  0  0  0
    0.1509   -0.1939    0.0000 C   0  0  0  0  0  0  0  0  0  0  0  0
   -0.6881    1.7691    0.0000 C   0  0  0  0  0  0  0  0  0  0  0  0
    0.9516    1.0391    0.0000 C   0  0  0  0  0  0  0  0  0  0  0  0
    1.6661    0.6266    0.0000 C   0  0  0  0  0  0  0  0  0  0  0  0
    3.0950    0.6266    0.0000 C   0  0  0  0  0  0  0  0  0  0  0  0
   -1.4727    2.0241    0.0000 C   0  0  0  0  0  0  0  0  0  0  0  0
    2.1617   -1.0430    0.0000 C   0  0  0  0  0  0  0  0  0  0  0  0
   -3.6794   -0.8133    0.0000 C   0  0  0  0  0  0  0  0  0  0  0  0
   -4.4999   -0.7271    0.0000 C   0  0  0  0  0  0  0  0  0  0  0  0
    0.5925   -1.5529    0.0000 C   0  0  0  0  0  0  0  0  0  0  0  0
   -2.1477   -1.9590    0.0000 C   0  0  0  0  0  0  0  0  0  0  0  0
    1.2056   -2.1049    0.0000 C   0  0  0  0  0  0  0  0  0  0  0  0
   -3.5300    0.6078    0.0000 C   0  0  0  0  0  0  0  0  0  0  0  0
   -1.6627   -2.6264    0.0000 C   0  0  0  0  0  0  0  0  0  0  0  0
    5.9529    0.6266    0.0000 O   0  0  0  0  0  0  0  0  0  0  0  0
    5.2384    1.0391    0.0000 C   0  0  0  0  0  0  0  0  0  0  0  0
    5.2384    1.8641    0.0000 O   0  0  0  0  0  0  0  0  0  0  0  0
    4.5240    0.6266    0.0000 C   0  0  0  0  0  0  0  0  0  0  0  0
    3.8095    1.0391    0.0000 C   0  0  2  0  0  0  0  0  0  0  0  0
    3.8095    1.8641    0.0000 O   0  0  0  0  0  0  0  0  0  0  0  0
    2.3806    1.0391    0.0000 C   0  0  2  0  0  0  0  0  0  0  0  0
    2.3806    1.8641    0.0000 O   0  0  0  0  0  0  0  0  0  0  0  0
    0.7640   -0.7459    0.0000 C   0  0  0  0  0  0  0  0  0  0  0  0
    1.9902   -1.8500    0.0000 C   0  0  0  0  0  0  0  0  0  0  0  0
    2.6033   -2.4020    0.0000 F   0  0  0  0  0  0  0  0  0  0  0  0
    1.5486   -0.4910    0.0000 C   0  0  0  0  0  0  0  0  0  0  0  0
   -0.5165    0.9622    0.0000 C   0  0  0  0  0  0  0  0  0  0  0  0
   -0.0750    2.3212    0.0000 C   0  0  0  0  0  0  0  0  0  0  0  0
   -1.0686    0.3491    0.0000 C   0  0  0  0  0  0  0  0  0  0  0  0
   -0.6561   -0.3654    0.0000 C   0  0  0  0  0  0  0  0  0  0  0  0
   -0.9916   -1.1191    0.0000 C   0  0  0  0  0  0  0  0  0  0  0  0
   -1.8121   -1.2053    0.0000 C   0  0  0  0  0  0  0  0  0  0  0  0
   -0.8423   -2.5402    0.0000 C   0  0  0  0  0  0  0  0  0  0  0  0
   -0.5067   -1.7865    0.0000 C   0  0  0  0  0  0  0  0  0  0  0  0
   -1.8891    0.4353    0.0000 C   0  0  0  0  0  0  0  0  0  0  0  0
   -2.2246    1.1890    0.0000 O   0  0  0  0  0  0  0  0  0  0  0  0
   -2.3740   -0.2321    0.0000 N   0  0  0  0  0  0  0  0  0  0  0  0
   -3.1945   -0.1459    0.0000 C   0  0  0  0  0  0  0  0  0  0  0  0
   -3.0451    1.2752    0.0000 O   0  0  0  0  0  0  0  0  0  0  0  0
   -4.3505    0.6940    0.0000 C   0  0  0  0  0  0  0  0  0  0  0  0
   -4.8354    0.0266    0.0000 C   0  0  0  0  0  0  0  0  0  0  0  0
 28  1  1  0  0  0  0
  2  1  1  0  0  0  0
  4  1  1  0  0  0  0
 31  2  2  0  0  0  0
 24  2  1  0  0  0  0
  7  3  1  0  0  0  0
 28  3  1  0  0  0  0
 29  3  1  0  0  0  0
  4  5  1  0  0  0  0
  5 22  1  0  0  0  0
  6 20  1  0  0  0  0
  6 22  1  0  0  0  0
  8 25  2  0  0  0  0
  8 27  1  0  0  0  0
  9 10  2  0  0  0  0
  9 39  1  0  0  0  0
 10 42  1  0  0  0  0
 11 13  2  0  0  0  0
 11 24  1  0  0  0  0
 12 33  2  0  0  0  0
 12 15  1  0  0  0  0
 13 25  1  0  0  0  0
 14 39  2  0  0  0  0
 41 14  1  0  0  0  0
 14 40  1  0  0  0  0
 34 15  2  0  0  0  0
 17 16  2  0  0  0  0
 17 18  1  0  0  0  0
 19 17  1  0  0  0  0
 20 19  1  0  0  0  0
 20 21  1  1  0  0  0
 22 23  1  1  0  0  0
 27 24  2  0  0  0  0
 25 26  1  0  0  0  0
 28 30  2  0  0  0  0
 30 36  1  0  0  0  0
 31 30  1  0  0  0  0
 31 32  1  0  0  0  0
 33 32  1  0  0  0  0
 35 32  2  0  0  0  0
 35 34  1  0  0  0  0
 36 37  2  0  0  0  0
 36 38  1  0  0  0  0
 39 38  1  0  0  0  0
 41 42  2  0  0  0  0
M  END