
  CDK    9/16/09,9:20

 31 34  0  0  0  0  0  0  0  0999 V2000
   11.1362    1.0673    0.0000 C   0  0  0  0  0  0  0  0  0  0  0  0
   11.1392    0.2442    0.0000 C   0  0  0  0  0  0  0  0  0  0  0  0
   11.8540   -0.1686    0.0000 C   0  0  0  0  0  0  0  0  0  0  0  0
   11.8563    1.4800    0.0000 C   0  0  0  0  0  0  0  0  0  0  0  0
   12.5675    1.0668    0.0000 C   0  0  0  0  0  0  0  0  0  0  0  0
   12.5663    0.2422    0.0000 C   0  0  0  0  0  0  0  0  0  0  0  0
   13.2789   -0.1689    0.0000 C   0  0  0  0  0  0  0  0  0  0  0  0
   13.9973    0.2443    0.0000 C   0  0  0  0  0  0  0  0  0  0  0  0
   13.9943    1.0689    0.0000 C   0  0  0  0  0  0  0  0  0  0  0  0
   13.2813    1.4804    0.0000 O   0  0  0  0  0  0  0  0  0  0  0  0
   13.2807   -0.9938    0.0000 O   0  0  0  0  0  0  0  0  0  0  0  0
   14.7105   -0.1702    0.0000 C   0  0  0  0  0  0  0  0  0  0  0  0
   14.7071   -0.9961    0.0000 C   0  0  0  0  0  0  0  0  0  0  0  0
   15.4195   -1.4104    0.0000 C   0  0  0  0  0  0  0  0  0  0  0  0
   16.1401   -0.9958    0.0000 C   0  0  0  0  0  0  0  0  0  0  0  0
   16.1398   -0.1708    0.0000 C   0  0  0  0  0  0  0  0  0  0  0  0
   15.4269    0.2441    0.0000 C   0  0  0  0  0  0  0  0  0  0  0  0
   16.8665   -1.4134    0.0000 O   0  0  0  0  0  0  0  0  0  0  0  0
   16.8694   -2.2466    0.0000 C   0  0  0  0  0  0  0  0  0  0  0  0
   10.4175    1.4796    0.0000 O   0  0  0  0  0  0  0  0  0  0  0  0
    9.7051    1.0642    0.0000 C   0  0  0  0  0  0  0  0  0  0  0  0
    9.7091    0.2393    0.0000 C   0  0  0  0  0  0  0  0  0  0  0  0
   10.4296   -0.1828    0.0000 O   0  0  0  0  0  0  0  0  0  0  0  0
    8.9967   -0.1720    0.0000 C   0  0  0  0  0  0  0  0  0  0  0  0
    8.9965   -0.9970    0.0000 O   0  0  0  0  0  0  0  0  0  0  0  0
    8.2803    0.2375    0.0000 C   0  0  0  0  0  0  0  0  0  0  0  0
    7.5576   -0.1816    0.0000 O   0  0  0  0  0  0  0  0  0  0  0  0
    8.2764    1.0625    0.0000 C   0  0  0  0  0  0  0  0  0  0  0  0
    8.9930    1.4778    0.0000 O   0  0  0  0  0  0  0  0  0  0  0  0
    7.5455    1.4767    0.0000 C   0  0  0  0  0  0  0  0  0  0  0  0
    6.8333    1.0560    0.0000 O   0  0  0  0  0  0  0  0  0  0  0  0
 14 15  2  0  0  0  0 
  5  4  2  0  0  0  0 
 15 16  1  0  0  0  0 
  4  1  1  0  0  0  0 
 16 17  2  0  0  0  0 
 17 12  1  0  0  0  0 
  5 10  1  0  0  0  0 
 15 18  1  0  0  0  0 
  6  7  1  0  0  0  0 
 18 19  1  0  0  0  0 
  7  8  1  0  0  0  0 
  1 20  1  0  0  0  0 
  8  9  2  0  0  0  0 
  9 10  1  0  0  0  0 
  5  6  1  0  0  0  0 
  7 11  2  0  0  0  0 
  8 12  1  0  0  0  0 
  2  3  1  0  0  0  0 
 12 13  2  0  0  0  0 
  3  6  2  0  0  0  0 
 13 14  1  0  0  0  0 
  1  2  2  0  0  0  0 
 21 20  1  1  0  0  0 
 21 22  1  0  0  0  0 
 22 23  1  6  0  0  0 
 22 24  1  0  0  0  0 
 24 25  1  1  0  0  0 
 24 26  1  0  0  0  0 
 26 27  1  6  0  0  0 
 26 28  1  0  0  0  0 
 28 29  1  0  0  0  0 
 28 30  1  1  0  0  0 
 30 31  1  0  0  0  0 
 21 29  1  0  0  0  0 
M  END