
  SciTegic09171211542D

 36 38  0  0  0  0            999 V2000
    6.3375   -1.1833    0.0000 N   0  0
    6.3375   -2.0083    0.0000 C   0  0  1  0  0  0
    7.0495   -2.4167    0.0000 C   0  0  2  0  0  0
    7.7615   -2.0083    0.0000 C   0  0
    7.7615   -1.1833    0.0000 C   0  0  1  0  0  0
    7.0495   -0.7667    0.0000 C   0  0
    7.0495    0.0583    0.0000 O   0  0
    5.6218   -0.7729    0.0000 C   0  0  1  0  0  0
    4.9086   -1.1875    0.0000 C   0  0
    5.6236   -2.4219    0.0000 C   0  0
    7.0495   -3.2417    0.0000 C   0  0
    4.9092   -2.0092    0.0000 C   0  0
    4.1958   -2.4220    0.0000 C   0  0
    4.1966   -3.2479    0.0000 C   0  0
    4.9167   -3.6592    0.0000 C   0  0
    5.6271   -3.2440    0.0000 C   0  0
    6.3330   -3.6527    0.0000 C   0  0
    6.3326   -4.4769    0.0000 C   0  0
    7.0476   -4.8903    0.0000 C   0  0
    7.7645   -4.4733    0.0000 C   0  0
    7.7613   -3.6505    0.0000 C   0  0
    3.4833   -3.6624    0.0000 Cl  0  0
    5.6179   -4.8891    0.0000 Cl  0  0
    8.4772   -0.7729    0.0000 C   0  0
    9.1905   -1.1875    0.0000 C   0  0
    9.1895   -2.0117    0.0000 O   0  0
    9.9076   -0.7763    0.0000 O   0  0
    8.1667   -1.8958    0.0000 C   0  0
    4.1929   -0.7771    0.0000 C   0  0
    5.6194    0.0521    0.0000 C   0  0
    6.3327    0.4667    0.0000 O   0  0
    4.9037    0.4625    0.0000 O   0  0
    4.9013    1.2875    0.0000 C   0  0
    4.1856    1.6938    0.0000 C   0  0
    5.6146    1.6979    0.0000 C   0  0
    4.8958    2.1125    0.0000 C   0  0
  1  6  1  0
 17 18  1  0
  8  9  1  1
 18 19  2  0
  2  3  1  0
 19 20  1  0
  2 10  1  1
 20 21  2  0
 21 11  1  0
  3  4  1  0
 14 22  1  0
  3 11  1  6
 18 23  1  0
  4  5  1  0
  5 24  1  1
 10 12  2  0
 24 25  1  0
  5  6  1  0
 12 13  1  0
 25 26  1  0
 25 27  2  0
  5 28  1  0
 13 14  2  0
  9 29  1  0
  6  7  2  0
  8 30  1  0
 14 15  1  0
 30 31  2  0
  1  2  1  0
 30 32  1  0
 15 16  2  0
 32 33  1  0
 16 10  1  0
 33 34  1  0
  1  8  1  0
 33 35  1  0
 11 17  2  0
 33 36  1  0
M  END