
  CDK    9/16/09,10:0

 26 28  0  0  0  0  0  0  0  0999 V2000
    3.0111  -20.6578    0.0000 N   0  0  0  0  0  0  0  0  0  0  0  0
    2.6066  -19.9414    0.0000 C   0  0  0  0  0  0  0  0  0  0  0  0
    1.7852  -19.9359    0.0000 C   0  0  0  0  0  0  0  0  0  0  0  0
    1.3659  -20.6468    0.0000 C   0  0  0  0  0  0  0  0  0  0  0  0
    1.7741  -21.3648    0.0000 C   0  0  0  0  0  0  0  0  0  0  0  0
    2.6017  -21.3719    0.0000 C   0  0  0  0  0  0  0  0  0  0  0  0
    3.8361  -20.6605    0.0000 C   0  0  0  0  0  0  0  0  0  0  0  0
    4.2462  -21.3762    0.0000 C   0  0  0  0  0  0  0  0  0  0  0  0
    4.2509  -19.9474    0.0000 C   0  0  0  0  0  0  0  0  0  0  0  0
   -4.8688  -21.0823    0.0000 C   0  0  0  0  0  0  0  0  0  0  0  0
   -4.8701  -21.9099    0.0000 C   0  0  0  0  0  0  0  0  0  0  0  0
   -4.1572  -22.3228    0.0000 C   0  0  0  0  0  0  0  0  0  0  0  0
   -3.4379  -21.9094    0.0000 C   0  0  0  0  0  0  0  0  0  0  0  0
   -3.4411  -21.0784    0.0000 C   0  0  0  0  0  0  0  0  0  0  0  0
   -4.1591  -20.6696    0.0000 C   0  0  0  0  0  0  0  0  0  0  0  0
   -2.7286  -20.6624    0.0000 C   0  0  0  0  0  0  0  0  0  0  0  0
   -2.0121  -21.0713    0.0000 C   0  0  0  0  0  0  0  0  0  0  0  0
   -1.9193  -21.8911    0.0000 C   0  0  0  0  0  0  0  0  0  0  0  0
   -1.1115  -22.0586    0.0000 N   0  0  0  0  0  0  0  0  0  0  0  0
   -0.7029  -21.3425    0.0000 C   0  0  0  0  0  0  0  0  0  0  0  0
   -1.2576  -20.7319    0.0000 N   0  0  0  0  0  0  0  0  0  0  0  0
   -1.0897  -19.9242    0.0000 C   0  0  0  0  0  0  0  0  0  0  0  0
    0.1220  -21.3500    0.0000 O   0  0  0  0  0  0  0  0  0  0  0  0
   -2.7327  -19.8374    0.0000 O   0  0  0  0  0  0  0  0  0  0  0  0
    0.5410  -20.6394    0.0000 C   0  0  0  0  0  0  0  0  0  0  0  0
   -4.1631  -19.8446    0.0000 Cl  0  0  0  0  0  0  0  0  0  0  0  0
  1  2  1  0  0  0  0 
 13 14  1  0  0  0  0 
  1  7  1  0  0  0  0 
 14 15  2  0  0  0  0 
 15 10  1  0  0  0  0 
 14 16  1  0  0  0  0 
  7  8  1  0  0  0  0 
 16 17  1  0  0  0  0 
 17 18  2  0  0  0  0 
  1  6  1  0  0  0  0 
  7  9  1  0  0  0  0 
  2  3  1  0  0  0  0 
  3  4  1  0  0  0  0 
 18 19  1  0  0  0  0 
 19 20  2  0  0  0  0 
 20 21  1  0  0  0  0 
 21 17  1  0  0  0  0 
 10 11  2  0  0  0  0 
 21 22  1  0  0  0  0 
  4  5  1  0  0  0  0 
 20 23  1  0  0  0  0 
 11 12  1  0  0  0  0 
 16 24  2  0  0  0  0 
  5  6  1  0  0  0  0 
 23 25  1  0  0  0  0 
 25  4  1  0  0  0  0 
 12 13  2  0  0  0  0 
 15 26  1  0  0  0  0 
M  END