
  CDK    9/16/09,9:41

 87 87  0  0  0  0  0  0  0  0999 V2000
   -4.4066   -5.9355    0.0000 N   0  0  0  0  0  0  0  0  0  0  0  0
   -3.6980   -6.3470    0.0000 C   0  0  0  0  0  0  0  0  0  0  0  0
   -2.9797   -5.1133    0.0000 O   0  0  0  0  0  0  0  0  0  0  0  0
   -2.9802   -5.9382    0.0000 C   0  0  0  0  0  0  0  0  0  0  0  0
   -3.7012   -7.1751    0.0000 C   0  0  0  0  0  0  0  0  0  0  0  0
   -2.9811   -7.5933    0.0000 C   0  0  0  0  0  0  0  0  0  0  0  0
   -2.9846   -8.4139    0.0000 C   0  0  0  0  0  0  0  0  0  0  0  0
   -2.2624   -8.8335    0.0000 C   0  0  0  0  0  0  0  0  0  0  0  0
   -2.2670   -6.3526    0.0000 N   0  0  0  0  0  0  0  0  0  0  0  0
   -1.5507   -5.9380    0.0000 C   0  0  0  0  0  0  0  0  0  0  0  0
   -0.8447   -7.1671    0.0000 O   0  0  0  0  0  0  0  0  0  0  0  0
   -0.8423   -6.3496    0.0000 C   0  0  0  0  0  0  0  0  0  0  0  0
   -1.5475   -5.1099    0.0000 C   0  0  0  0  0  0  0  0  0  0  0  0
   -0.1209   -5.9366    0.0000 N   0  0  0  0  0  0  0  0  0  0  0  0
    0.5868   -6.3477    0.0000 C   0  0  0  0  0  0  0  0  0  0  0  0
    1.3108   -5.1010    0.0000 O   0  0  0  0  0  0  0  0  0  0  0  0
    1.3064   -5.9322    0.0000 C   0  0  0  0  0  0  0  0  0  0  0  0
    0.5818   -7.1671    0.0000 C   0  0  0  0  0  0  0  0  0  0  0  0
   -0.1251   -7.5736    0.0000 C   0  0  0  0  0  0  0  0  0  0  0  0
    2.7351   -5.9472    0.0000 C   0  0  0  0  0  0  0  0  0  0  0  0
    3.4376   -7.1771    0.0000 O   0  0  0  0  0  0  0  0  0  0  0  0
    3.4426   -6.3581    0.0000 C   0  0  0  0  0  0  0  0  0  0  0  0
    4.8684   -6.3549    0.0000 C   0  0  0  0  0  0  0  0  0  0  0  0
    5.5907   -5.1113    0.0000 O   0  0  0  0  0  0  0  0  0  0  0  0
    5.5899   -5.9449    0.0000 C   0  0  0  0  0  0  0  0  0  0  0  0
    6.2938   -6.3537    0.0000 N   0  0  0  0  0  0  0  0  0  0  0  0
    7.0174   -5.9401    0.0000 C   0  0  0  0  0  0  0  0  0  0  0  0
    7.7220   -7.1663    0.0000 O   0  0  0  0  0  0  0  0  0  0  0  0
    7.7248   -6.3510    0.0000 C   0  0  0  0  0  0  0  0  0  0  0  0
    7.0182   -5.1065    0.0000 C   0  0  0  0  0  0  0  0  0  0  0  0
    6.2990   -4.6888    0.0000 C   0  0  0  0  0  0  0  0  0  0  0  0
    6.3040   -3.8700    0.0000 C   0  0  0  0  0  0  0  0  0  0  0  0
    5.5847   -3.4522    0.0000 C   0  0  0  0  0  0  0  0  0  0  0  0
    9.1527   -6.3528    0.0000 C   0  0  0  0  0  0  0  0  0  0  0  0
    9.8772   -5.1057    0.0000 O   0  0  0  0  0  0  0  0  0  0  0  0
    9.1534   -7.1703    0.0000 C   0  0  0  0  0  0  0  0  0  0  0  0
    9.8764   -5.9393    0.0000 C   0  0  0  0  0  0  0  0  0  0  0  0
   10.5837   -6.3501    0.0000 N   0  0  0  0  0  0  0  0  0  0  0  0
   11.3455   -6.0724    0.0000 C   0  0  0  0  0  0  0  0  0  0  0  0
   10.6801   -4.8321    0.0000 O   0  0  0  0  0  0  0  0  0  0  0  0
   11.3916   -5.2478    0.0000 C   0  0  0  0  0  0  0  0  0  0  0  0
   12.0322   -6.5363    0.0000 C   0  0  0  0  0  0  0  0  0  0  0  0
   10.7513   -7.2264    0.0000 C   0  0  0  0  0  0  0  0  0  0  0  0
   11.6430   -7.3477    0.0000 C   0  0  0  0  0  0  0  0  0  0  0  0
    9.9670   -1.1222    0.0000 C   0  0  0  0  0  0  0  0  0  0  0  0
   12.1068   -4.0060    0.0000 C   0  0  0  0  0  0  0  0  0  0  0  0
   13.5357   -4.0104    0.0000 O   0  0  0  0  0  0  0  0  0  0  0  0
   12.8224   -3.5985    0.0000 C   0  0  0  0  0  0  0  0  0  0  0  0
   11.3954   -3.5904    0.0000 C   0  0  0  0  0  0  0  0  0  0  0  0
   11.3996   -2.7671    0.0000 C   0  0  0  0  0  0  0  0  0  0  0  0
   10.6844   -2.3496    0.0000 C   0  0  0  0  0  0  0  0  0  0  0  0
   13.5489   -2.3764    0.0000 C   0  0  0  0  0  0  0  0  0  0  0  0
   12.8379   -1.1357    0.0000 O   0  0  0  0  0  0  0  0  0  0  0  0
   13.5550   -1.5495    0.0000 C   0  0  0  0  0  0  0  0  0  0  0  0
   14.2603   -2.7921    0.0000 C   0  0  0  0  0  0  0  0  0  0  0  0
   14.9778   -2.3808    0.0000 C   0  0  0  0  0  0  0  0  0  0  0  0
   15.6891   -2.7965    0.0000 C   0  0  0  0  0  0  0  0  0  0  0  0
   16.4048   -2.3890    0.0000 C   0  0  0  0  0  0  0  0  0  0  0  0
   14.2773   -0.3081    0.0000 C   0  0  0  0  0  0  0  0  0  0  0  0
   14.9990    0.9265    0.0000 O   0  0  0  0  0  0  0  0  0  0  0  0
   14.9948    0.1032    0.0000 C   0  0  0  0  0  0  0  0  0  0  0  0
   13.5659    0.1076    0.0000 C   0  0  0  0  0  0  0  0  0  0  0  0
   13.5702    0.9309    0.0000 C   0  0  0  0  0  0  0  0  0  0  0  0
   12.8550    1.3484    0.0000 C   0  0  0  0  0  0  0  0  0  0  0  0
   12.8610    2.1754    0.0000 O   0  0  0  0  0  0  0  0  0  0  0  0
   10.6273   -5.6562    0.0000 H   0  0  0  0  0  0  0  0  0  0  0  0
    6.2959   -2.2141    0.0000 C   0  0  0  0  0  0  0  0  0  0  0  0
    6.2951   -1.3891    0.0000 O   0  0  0  0  0  0  0  0  0  0  0  0
    7.0106   -2.6259    0.0000 C   0  0  0  0  0  0  0  0  0  0  0  0
    7.7247   -2.2128    0.0000 C   0  0  0  0  0  0  0  0  0  0  0  0
    8.4395   -2.6246    0.0000 C   0  0  0  0  0  0  0  0  0  0  0  0
   -2.2691   -9.6436    0.0000 N   0  0  0  0  0  0  0  0  0  0  0  0
   -0.8501   -4.7037    0.0000 O   0  0  0  0  0  0  0  0  0  0  0  0
    1.2985   -7.5860    0.0000 O   0  0  0  0  0  0  0  0  0  0  0  0
    2.0164   -6.3523    0.0000 N   0  0  0  0  0  0  0  0  0  0  0  0
    4.1545   -5.9413    0.0000 N   0  0  0  0  0  0  0  0  0  0  0  0
    5.5818   -2.6272    0.0000 N   0  0  0  0  0  0  0  0  0  0  0  0
    8.4393   -5.9385    0.0000 N   0  0  0  0  0  0  0  0  0  0  0  0
   10.6872   -1.5246    0.0000 N   0  0  0  0  0  0  0  0  0  0  0  0
    9.2428   -1.5150    0.0000 N   0  0  0  0  0  0  0  0  0  0  0  0
    9.9608   -0.2787    0.0000 N   0  0  0  0  0  0  0  0  0  0  0  0
   12.1036   -4.8310    0.0000 N   0  0  0  0  0  0  0  0  0  0  0  0
   12.8257   -2.7735    0.0000 N   0  0  0  0  0  0  0  0  0  0  0  0
   17.1135   -2.7993    0.0000 N   0  0  0  0  0  0  0  0  0  0  0  0
   14.2671   -1.1330    0.0000 N   0  0  0  0  0  0  0  0  0  0  0  0
   12.1394    0.9409    0.0000 N   0  0  0  0  0  0  0  0  0  0  0  0
   15.7063   -0.3125    0.0000 O   0  0  0  0  0  0  0  0  0  0  0  0
 12 11  2  0  0  0  0 
 10 13  1  0  0  0  0 
 15 14  1  6  0  0  0 
 15 17  1  0  0  0  0 
 17 16  2  0  0  0  0 
 15 18  1  0  0  0  0 
 18 19  1  0  0  0  0 
 20 22  1  0  0  0  0 
 22 21  2  0  0  0  0 
 23 25  1  0  0  0  0 
 25 24  2  0  0  0  0 
 27 26  1  1  0  0  0 
 27 29  1  0  0  0  0 
 29 28  2  0  0  0  0 
 27 30  1  0  0  0  0 
 30 31  1  0  0  0  0 
 31 32  1  0  0  0  0 
 32 33  1  0  0  0  0 
 34 37  1  0  0  0  0 
 37 35  2  0  0  0  0 
 34 36  1  6  0  0  0 
 38 39  1  0  0  0  0 
 39 41  1  0  0  0  0 
 41 40  2  0  0  0  0 
 39 42  1  0  0  0  0 
 43 44  1  0  0  0  0 
 44 42  1  0  0  0  0 
 43 38  1  0  0  0  0 
 46 48  1  0  0  0  0 
 48 47  2  0  0  0  0 
 46 49  1  1  0  0  0 
 49 50  1  0  0  0  0 
 50 51  1  0  0  0  0 
 52 54  1  0  0  0  0 
 54 53  2  0  0  0  0 
 52 55  1  6  0  0  0 
 55 56  1  0  0  0  0 
 56 57  1  0  0  0  0 
 57 58  1  0  0  0  0 
 59 61  1  0  0  0  0 
 61 60  2  0  0  0  0 
 59 62  1  1  0  0  0 
 62 63  1  0  0  0  0 
 63 64  1  0  0  0  0 
 64 65  2  0  0  0  0 
 39 66  1  1  0  0  0 
  4  9  1  0  0  0  0 
 12 14  1  0  0  0  0 
 67 68  2  0  0  0  0 
 67 69  1  0  0  0  0 
 69 70  1  0  0  0  0 
 25 26  1  0  0  0  0 
 70 71  1  0  0  0  0 
 37 38  1  0  0  0  0 
  2  1  1  6  0  0  0 
  2  4  1  0  0  0  0 
  4  3  2  0  0  0  0 
  2  5  1  0  0  0  0 
  5  6  1  0  0  0  0 
  6  7  1  0  0  0  0 
  7  8  1  0  0  0  0 
 10  9  1  1  0  0  0 
 10 12  1  0  0  0  0 
 79 45  1  0  0  0  0 
 51 79  1  0  0  0  0 
 75 20  1  0  0  0  0 
 17 75  1  0  0  0  0 
 45 80  1  0  0  0  0 
 13 73  1  0  0  0  0 
 45 81  2  0  0  0  0 
 76 23  1  0  0  0  0 
 22 76  1  0  0  0  0 
 82 46  1  0  0  0  0 
 41 82  1  0  0  0  0 
  8 72  1  0  0  0  0 
 83 52  1  0  0  0  0 
 48 83  1  0  0  0  0 
 33 77  1  0  0  0  0 
 77 67  1  0  0  0  0 
 58 84  1  0  0  0  0 
 18 74  1  6  0  0  0 
 85 59  1  0  0  0  0 
 54 85  1  0  0  0  0 
 78 34  1  0  0  0  0 
 29 78  1  0  0  0  0 
 64 86  1  0  0  0  0 
 61 87  1  0  0  0  0 
M  END