
          11290714382D 1   1.00000     0.00000     0

 61 65  0     1  0            999 V2000
    4.4764  -20.9834    0.0000 C   0  0  0  0  0  0           0  0  0
    5.2007  -21.3785    0.0000 C   0  0  0  0  0  0           0  0  0
    5.9001  -20.9489    0.0000 N   0  0  3  0  0  0           0  0  0
    5.8826  -20.1283    0.0000 C   0  0  0  0  0  0           0  0  0
    5.1583  -19.7333    0.0000 C   0  0  0  0  0  0           0  0  0
    4.4516  -20.1588    0.0000 C   0  0  3  0  0  0           0  0  0
    4.4252  -19.3370    0.0000 C   0  0  0  0  0  0           0  0  0
    3.7440  -20.5830    0.0000 N   0  0  0  0  0  0           0  0  0
    5.1261  -18.9018    0.0000 O   0  0  0  0  0  0           0  0  0
    3.6979  -18.9477    0.0000 N   0  0  0  0  0  0           0  0  0
    3.6714  -18.1231    0.0000 C   0  0  2  0  0  0           0  0  0
    2.9441  -17.7337    0.0000 C   0  0  0  0  0  0           0  0  0
    4.3723  -17.6879    0.0000 C   0  0  0  0  0  0           0  0  0
    4.3458  -16.8633    0.0000 C   0  0  0  0  0  0           0  0  0
    5.0467  -16.4281    0.0000 N   0  0  0  0  0  0           0  0  0
    3.6185  -16.4739    0.0000 O   0  0  0  0  0  0           0  0  0
    2.9176  -16.9091    0.0000 O   0  0  0  0  0  0           0  0  0
    2.2432  -18.1689    0.0000 N   0  0  0  0  0  0           0  0  0
    1.5159  -17.7796    0.0000 C   0  0  0  0  0  0           0  0  0
    0.8150  -18.2148    0.0000 C   0  0  0  0  0  0           0  0  0
    0.0877  -17.8254    0.0000 C   0  0  0  0  0  0           0  0  0
   -0.6132  -18.2606    0.0000 C   0  0  0  0  0  0           0  0  0
   -1.3378  -17.8686    0.0000 C   0  0  0  0  0  0           0  0  0
   -1.2798  -19.5176    0.0000 C   0  0  0  0  0  0           0  0  0
   -0.5824  -19.0809    0.0000 C   0  0  0  0  0  0           0  0  0
   -2.0121  -19.1286    0.0000 C   0  0  0  0  0  0           0  0  0
   -2.0357  -18.3045    0.0000 C   0  0  0  0  0  0           0  0  0
   -2.7599  -17.9146    0.0000 C   0  0  0  0  0  0           0  0  0
   -3.4611  -18.3477    0.0000 C   0  0  0  0  0  0           0  0  0
   -3.4335  -19.1748    0.0000 C   0  0  0  0  0  0           0  0  0
   -2.7088  -19.5609    0.0000 C   0  0  0  0  0  0           0  0  0
    3.0228  -20.1823    0.0000 C   0  0  0  0  0  0           0  0  0
    2.3152  -20.6065    0.0000 C   0  0  2  0  0  0           0  0  0
    3.0093  -19.3574    0.0000 O   0  0  0  0  0  0           0  0  0
    1.5941  -20.2058    0.0000 C   0  0  0  0  0  0           0  0  0
    0.8865  -20.6299    0.0000 C   0  0  0  0  0  0           0  0  0
    0.1659  -20.2275    0.0000 C   0  0  0  0  0  0           0  0  0
   -0.5412  -20.6510    0.0000 C   0  0  0  0  0  0           0  0  0
   -0.5281  -21.4768    0.0000 C   0  0  0  0  0  0           0  0  0
    0.1981  -21.8773    0.0000 C   0  0  0  0  0  0           0  0  0
    0.9022  -21.4515    0.0000 C   0  0  0  0  0  0           0  0  0
    2.3288  -21.4314    0.0000 C   0  0  0  0  0  0           0  0  0
    3.0499  -21.8321    0.0000 C   0  0  0  0  0  0           0  0  0
    3.0668  -22.6576    0.0000 O   0  0  0  0  0  0           0  0  0
    3.7608  -21.4086    0.0000 O   0  0  0  0  0  0           0  0  0
   -1.2351  -21.9019    0.0000 C   0  0  0  0  0  0           0  0  0
   -1.9568  -21.5022    0.0000 P   0  0  3  0  0  0           0  0  0
   -2.6750  -21.0875    0.0000 O   0  0  0  0  0  0           0  0  0
   -2.3630  -22.2203    0.0000 O   0  0  0  0  0  0           0  0  0
   -1.5469  -20.7862    0.0000 O   0  0  0  0  0  0           0  0  0
    6.6244  -21.3440    0.0000 S   0  0  3  0  0  0           0  0  0
    7.3333  -21.7542    0.0000 C   0  0  0  0  0  0           0  0  0
    7.0285  -20.6248    0.0000 O   0  0  0  0  0  0           0  0  0
    6.2255  -22.0662    0.0000 O   0  0  0  0  0  0           0  0  0
    8.0482  -21.3423    0.0000 C   0  0  0  0  0  0           0  0  0
    8.7623  -21.7554    0.0000 C   0  0  0  0  0  0           0  0  0
    8.7590  -22.5802    0.0000 C   0  0  0  0  0  0           0  0  0
    9.4722  -22.9933    0.0000 C   0  0  0  0  0  0           0  0  0
   10.1881  -22.5814    0.0000 C   0  0  0  0  0  0           0  0  0
   10.1862  -21.7521    0.0000 C   0  0  0  0  0  0           0  0  0
    9.4723  -21.3428    0.0000 C   0  0  0  0  0  0           0  0  0
 29 30  2  0     0  0
 14 15  1  0     0  0
 30 31  1  0     0  0
 31 26  2  0     0  0
  1  2  1  0     0  0
  8 32  1  0     0  0
 14 16  2  0     0  0
 32 33  1  0     0  0
  6  8  1  0     0  0
 32 34  2  0     0  0
 12 17  2  0     0  0
 33 35  1  0     0  0
  1  6  1  0     0  0
 35 36  1  0     0  0
 12 18  1  0     0  0
 36 37  2  0     0  0
  7  9  2  0     0  0
 37 38  1  0     0  0
 18 19  1  0     0  0
 38 39  2  0     0  0
  2  3  1  0     0  0
 39 40  1  0     0  0
 19 20  1  0     0  0
 40 41  2  0     0  0
 41 36  1  0     0  0
  7 10  1  0     0  0
 33 42  1  1     0  0
 20 21  1  0     0  0
 42 43  1  0     0  0
  3  4  1  0     0  0
 21 22  1  0     0  0
 43 44  1  0     0  0
 43 45  2  0     0  0
 10 11  1  0     0  0
 39 46  1  0     0  0
 22 23  2  0     0  0
 46 47  1  0     0  0
 23 27  1  0     0  0
 47 48  2  0     0  0
  4  5  1  0     0  0
 47 49  1  0     0  0
 26 24  1  0     0  0
 47 50  1  0     0  0
 11 12  1  0     0  0
  3 51  1  0     0  0
 24 25  2  0     0  0
 51 52  1  0     0  0
 25 22  1  0     0  0
 51 53  2  0     0  0
  5  6  1  0     0  0
 51 54  2  0     0  0
 11 13  1  6     0  0
 52 55  1  0     0  0
 26 27  1  0     0  0
 55 56  1  0     0  0
 56 57  2  0     0  0
 27 28  2  0     0  0
 57 58  1  0     0  0
 13 14  1  0     0  0
 58 59  2  0     0  0
 28 29  1  0     0  0
 59 60  1  0     0  0
  6  7  1  0     0  0
 60 61  2  0     0  0
 61 56  1  0     0  0
M  END