
  SciTegic02181312462D

 37 40  0  0  0  0            999 V2000
   13.1650   -6.7484    0.0000 C   0  0
   13.1650   -5.9234    0.0000 C   0  0
   13.8795   -5.5109    0.0000 C   0  0
   14.5939   -5.9234    0.0000 C   0  0
   14.5939   -6.7484    0.0000 C   0  0
   13.8795   -7.1609    0.0000 N   0  0
   12.4505   -7.1609    0.0000 C   0  0
   12.4505   -7.9859    0.0000 O   0  0
   11.7360   -6.7484    0.0000 N   0  0
   15.3084   -5.5109    0.0000 C   0  0
   17.4518   -6.7484    0.0000 N   0  0
   16.7373   -7.1609    0.0000 C   0  0
   16.0229   -6.7484    0.0000 C   0  0
   16.0229   -5.9234    0.0000 C   0  0
   16.7373   -5.5109    0.0000 C   0  0
   17.4518   -5.9234    0.0000 C   0  0
   18.1663   -7.1609    0.0000 C   0  0
   18.8808   -6.7484    0.0000 C   0  0
   11.0216   -7.1609    0.0000 C   0  0
   11.0216   -7.9859    0.0000 C   0  0
   10.3071   -8.3984    0.0000 C   0  0
    9.5926   -7.9859    0.0000 C   0  0
    9.5926   -7.1609    0.0000 C   0  0
   10.3071   -6.7484    0.0000 C   0  0
    8.8782   -8.3984    0.0000 N   0  0
    8.1637   -7.9859    0.0000 C   0  0
    8.1637   -7.1609    0.0000 O   0  0
    7.4492   -8.3984    0.0000 N   0  0
    5.8415   -6.9939    0.0000 O   0  0
    6.6485   -7.1654    0.0000 N   0  0
    6.7348   -7.9859    0.0000 C   0  0
    5.9811   -8.3215    0.0000 C   0  0
    5.4290   -7.7084    0.0000 C   0  0
    4.6086   -7.7946    0.0000 C   0  0
    4.3950   -8.5915    0.0000 C   0  0
    3.7881   -7.8809    0.0000 C   0  0
    4.1961   -7.0801    0.0000 C   0  0
  1  2  1  0
  2  3  2  0
  3  4  1  0
  4  5  2  0
  5  6  1  0
  1  6  2  0
  1  7  1  0
  7  8  2  0
  7  9  1  0
 11 12  1  0
 12 13  1  0
 13 14  1  0
 14 15  1  0
 15 16  1  0
 11 16  1  0
 17 18  1  0
 11 17  1  0
 10 14  1  0
  4 10  1  0
 19 20  1  0
 20 21  2  0
 21 22  1  0
 22 23  2  0
 23 24  1  0
 19 24  2  0
 25 26  1  0
 26 27  2  0
 26 28  1  0
 29 30  1  0
 30 31  2  0
 31 32  1  0
 32 33  2  0
 29 33  1  0
 34 35  1  0
 34 37  1  0
 34 36  1  0
 33 34  1  0
 28 31  1  0
 22 25  1  0
  9 19  1  0
M  END