
  SciTegic02011310452D

 24 26  0  0  0  0            999 V2000
    0.8619  -21.4875    0.0000 C   0  0
    0.8608  -22.3157    0.0000 N   0  0
    1.5762  -22.7289    0.0000 C   0  0
    2.2934  -22.3152    0.0000 N   0  0
    2.2906  -21.4838    0.0000 C   0  0
    1.5744  -21.0744    0.0000 C   0  0
    3.0041  -21.0683    0.0000 N   0  0
    3.7209  -21.4785    0.0000 C   0  0
    3.7206  -22.3020    0.0000 C   0  0
    4.4365  -22.7120    0.0000 C   0  0
    5.1511  -22.2964    0.0000 C   0  0
    5.1453  -21.4663    0.0000 C   0  0
    4.4289  -21.0600    0.0000 C   0  0
    1.5760  -23.5547    0.0000 N   0  0
    2.2911  -23.9678    0.0000 C   0  0
    2.2867  -24.7918    0.0000 C   0  0
    3.0010  -25.2048    0.0000 C   0  0
    3.7173  -24.7920    0.0000 C   0  0
    3.7147  -23.9620    0.0000 C   0  0
    3.0000  -23.5527    0.0000 C   0  0
    4.4214  -20.2342    0.0000 F   0  0
    4.4348  -25.2035    0.0000 C   0  0
    4.4358  -26.0293    0.0000 O   0  0
    5.1495  -24.7898    0.0000 O   0  0
  1  2  2  0
  2  3  1  0
  3  4  2  0
  4  5  1  0
  5  6  2  0
  6  1  1  0
  5  7  1  0
  7  8  1  0
  8  9  2  0
  9 10  1  0
 10 11  2  0
 11 12  1  0
 12 13  2  0
 13  8  1  0
  3 14  1  0
 14 15  1  0
 15 16  2  0
 16 17  1  0
 17 18  2  0
 18 19  1  0
 19 20  2  0
 20 15  1  0
 13 21  1  0
 22 23  1  0
 22 24  2  0
 18 22  1  0
M  END