
  SciTegic11201309402D

 34 38  0  0  1  0            999 V2000
    6.5417   -7.7542    0.0000 C   0  0
    6.2417   -7.2417    0.0000 C   0  0
    5.6375   -7.2417    0.0000 N   0  0
    6.2375   -8.2792    0.0000 C   0  0
    5.6417   -8.2792    0.0000 N   0  0
    3.7042   -5.5500    0.0000 C   0  0  1  0  0  0
    3.1917   -5.2500    0.0000 C   0  0
    5.3375   -7.7542    0.0000 C   0  0
    7.1417   -7.7542    0.0000 C   0  0
    3.1917   -4.6500    0.0000 C   0  0
    4.4292   -6.1917    0.0000 N   0  0
    6.5417   -8.8042    0.0000 C   0  0
    4.2292   -5.2417    0.0000 C   0  0  2  0  0  0
    7.4417   -8.2750    0.0000 C   0  0
    7.1417   -8.8042    0.0000 C   0  0
    3.8375   -6.1375    0.0000 C   0  0
    3.7042   -4.3500    0.0000 C   0  0
    4.6792   -5.6500    0.0000 C   0  0
    6.5542   -6.7167    0.0000 O   0  0
    5.3375   -6.7250    0.0000 C   0  0
    4.2292   -4.6542    0.0000 C   0  0
    2.6750   -4.3500    0.0000 C   0  0
    4.7292   -6.7167    0.0000 C   0  0
    8.0417   -8.2542    0.0000 O   0  0
    7.4417   -9.3292    0.0000 O   0  0
    2.6750   -5.5500    0.0000 C   0  0
    2.6792   -3.7500    0.0000 O   0  0
    2.1500   -5.2417    0.0000 C   0  0
    2.1500   -4.6542    0.0000 C   0  0
    8.0500   -9.3375    0.0000 C   0  0
    8.3542   -8.7667    0.0000 C   0  0
    3.2042   -3.4542    0.0000 C   0  0
    5.1435   -4.8367    0.0000 H   0  0
    2.8974   -6.1409    0.0000 H   0  0
  2  1  1  0
  3  2  1  0
  4  1  2  0
  5  4  1  0
  6 16  1  0
  7  6  1  0
  8  5  2  0
  9  1  1  0
 10  7  1  0
 11 23  1  0
 12  4  1  0
 13 18  1  0
 14  9  2  0
 15 14  1  0
 16 11  1  0
 17 21  1  0
 18 11  1  0
 19  2  2  0
 20  3  1  0
 21 13  1  0
 22 10  2  0
 23 20  1  0
 24 14  1  0
 25 15  1  0
 26  7  2  0
 27 22  1  0
 28 26  1  0
 29 28  2  0
 30 25  1  0
 31 24  1  0
 32 27  1  0
 15 12  2  0
  3  8  1  0
 13  6  1  0
 10 17  1  0
 22 29  1  0
 13 33  1  6
  6 34  1  6
M  END