
          11280715502D 1   1.00000     0.00000     0

 46 50  0     1  0            999 V2000
   -1.2732  -17.9012    0.0000 C   0  0  0  0  0  0           0  0  0
   -0.8534  -18.6142    0.0000 C   0  0  0  0  0  0           0  0  0
   -0.0280  -18.6062    0.0000 C   0  0  0  0  0  0           0  0  0
    0.3787  -17.8859    0.0000 C   0  0  0  0  0  0           0  0  0
   -0.0461  -17.1723    0.0000 C   0  0  0  0  0  0           0  0  0
   -0.8701  -17.1838    0.0000 C   0  0  0  0  0  0           0  0  0
    0.3566  -16.4522    0.0000 C   0  0  0  0  0  0           0  0  0
    1.1815  -16.4410    0.0000 N   0  0  3  0  0  0           0  0  0
   -0.0656  -15.7435    0.0000 O   0  0  0  0  0  0           0  0  0
    1.6024  -17.1526    0.0000 C   0  0  1  0  0  0           0  0  0
    2.4238  -17.1433    0.0000 C   0  0  0  0  0  0           0  0  0
    2.8303  -16.4251    0.0000 N   0  0  3  0  0  0           0  0  0
    2.4093  -15.7145    0.0000 C   0  0  0  0  0  0           0  0  0
    1.5817  -15.7221    0.0000 C   0  0  0  0  0  0           0  0  0
    1.1977  -17.8715    0.0000 C   0  0  0  0  0  0           0  0  0
    1.6096  -18.5843    0.0000 C   0  0  0  0  0  0           0  0  0
    1.2792  -19.3384    0.0000 C   0  0  0  0  0  0           0  0  0
    1.8912  -19.8891    0.0000 N   0  0  0  0  0  0           0  0  0
    2.4326  -18.6720    0.0000 C   0  0  0  0  0  0           0  0  0
    2.6031  -19.4760    0.0000 C   0  0  0  0  0  0           0  0  0
    3.3833  -19.7288    0.0000 C   0  0  0  0  0  0           0  0  0
    3.9935  -19.1785    0.0000 C   0  0  0  0  0  0           0  0  0
    3.8184  -18.3722    0.0000 C   0  0  0  0  0  0           0  0  0
    3.0385  -18.1232    0.0000 C   0  0  0  0  0  0           0  0  0
    0.3833  -19.3183    0.0000 C   0  0  3  0  0  0           0  0  0
    1.0936  -18.8988    0.0000 F   0  0  0  0  0  0           0  0  0
    0.7992  -20.0308    0.0000 F   0  0  0  0  0  0           0  0  0
   -0.3292  -19.7343    0.0000 F   0  0  0  0  0  0           0  0  0
   -2.0981  -17.9095    0.0000 C   0  0  3  0  0  0           0  0  0
   -2.0952  -18.7351    0.0000 F   0  0  0  0  0  0           0  0  0
   -2.1116  -17.0850    0.0000 F   0  0  0  0  0  0           0  0  0
   -2.9256  -17.9190    0.0000 F   0  0  0  0  0  0           0  0  0
    3.6553  -16.4169    0.0000 C   0  0  0  0  0  0           0  0  0
    4.0607  -15.6984    0.0000 C   0  0  0  0  0  0           0  0  0
    4.8857  -15.6903    0.0000 N   0  0  0  0  0  0           0  0  0
    3.6412  -14.9881    0.0000 C   0  0  0  0  0  0           0  0  0
    5.3052  -16.4007    0.0000 O   0  0  0  0  0  0           0  0  0
    6.1302  -16.3925    0.0000 C   0  0  0  0  0  0           0  0  0
    6.5497  -17.1029    0.0000 C   0  0  3  0  0  0           0  0  0
    6.1443  -17.8214    0.0000 C   0  0  0  0  0  0           0  0  0
    7.3747  -17.0947    0.0000 N   0  0  3  0  0  0           0  0  0
    7.7877  -17.8062    0.0000 C   0  0  0  0  0  0           0  0  0
    8.6090  -17.8000    0.0000 C   0  0  0  0  0  0           0  0  0
    9.0183  -17.0833    0.0000 O   0  0  0  0  0  0           0  0  0
    8.6000  -16.3711    0.0000 C   0  0  0  0  0  0           0  0  0
    7.7724  -16.3756    0.0000 C   0  0  0  0  0  0           0  0  0
 21 22  2  0     0  0
  5  6  2  0     0  0
 22 23  1  0     0  0
  6  1  1  0     0  0
 23 24  2  0     0  0
 24 19  1  0     0  0
  1  2  2  0     0  0
  3 25  1  0     0  0
  8 14  1  0     0  0
 25 26  1  0     0  0
 10 11  1  0     0  0
 25 27  1  0     0  0
 11 12  1  0     0  0
 25 28  1  0     0  0
 12 13  1  0     0  0
  1 29  1  0     0  0
 13 14  1  0     0  0
 29 30  1  0     0  0
  5  7  1  0     0  0
 29 31  1  0     0  0
 10 15  1  1     0  0
 29 32  1  0     0  0
  3  4  2  0     0  0
 12 33  1  0     0  0
 15 16  1  0     0  0
 33 34  1  0     0  0
 16 17  2  0     0  0
 34 35  2  0     0  0
  7  8  1  0     0  0
 34 36  1  0     0  0
 35 37  1  0     0  0
 17 18  1  0     0  0
 37 38  1  0     0  0
 18 20  1  0     0  0
 38 39  1  0     0  0
 19 16  1  0     0  0
 39 40  1  0     0  0
  7  9  2  0     0  0
 39 41  1  0     0  0
 41 42  1  0     0  0
  8 10  1  0     0  0
 19 20  2  0     0  0
  4  5  1  0     0  0
 20 21  1  0     0  0
  2  3  1  0     0  0
 41 46  1  0     0  0
 42 43  1  0     0  0
 43 44  1  0     0  0
 44 45  1  0     0  0
 45 46  1  0     0  0
M  END