
  SciTegic05071317052D

 29 29  0  0  0  0            999 V2000
   25.2927  -26.2279    0.0000 C   0  0
   25.9606  -25.7435    0.0000 N   0  0
   25.7064  -24.9587    0.0000 C   0  0
   24.8813  -24.9580    0.0000 C   0  0
   24.6257  -25.7424    0.0000 S   0  0
   24.4652  -24.2458    0.0000 C   0  0
   23.6402  -24.2498    0.0000 C   0  0
   23.2243  -23.5375    0.0000 N   0  0
   22.3993  -23.5415    0.0000 C   0  0
   23.6333  -22.8209    0.0000 C   0  0
   25.2948  -27.0501    0.0000 N   0  0
   24.5782  -27.4607    0.0000 C   0  0
   24.5755  -28.2821    0.0000 C   0  0
   25.2877  -28.6991    0.0000 N   0  0
   26.0044  -28.2885    0.0000 C   0  0
   26.0087  -27.4609    0.0000 C   0  0
   25.2839  -29.5241    0.0000 C   0  0
   24.5675  -29.9333    0.0000 C   0  0
   24.5637  -30.7582    0.0000 C   0  0
   21.9833  -22.8291    0.0000 C   0  0
   21.9904  -24.2580    0.0000 O   0  0
   22.3954  -22.1136    0.0000 C   0  0
   21.9802  -21.4017    0.0000 C   0  0
   21.1543  -21.4053    0.0000 C   0  0
   20.7455  -22.1267    0.0000 C   0  0
   21.1631  -22.8357    0.0000 C   0  0
   20.7373  -20.6934    0.0000 C   0  0
   23.3348  -25.6994    0.0000 Br  0  0
   22.3634  -26.2821    0.0000 Br  0  0
  1  2  2  0
  2  3  1  0
  3  4  2  0
  4  5  1  0
  5  1  1  0
  4  6  1  0
  6  7  1  0
  7  8  1  0
  8  9  1  0
  8 10  1  0
 11 12  1  0
 11 16  1  0
 12 13  1  0
 13 14  1  0
 14 15  1  0
 15 16  1  0
  1 11  1  0
 14 17  1  0
 17 18  1  0
 18 19  1  0
  9 20  1  0
  9 21  2  0
 20 22  2  0
 22 23  1  0
 23 24  2  0
 24 25  1  0
 25 26  2  0
 26 20  1  0
 24 27  1  0
M  END