
  SciTegic05161214222D

 57 60  0  0  0  0            999 V2000
    1.4485  -11.4541    0.0000 N   0  0
   -2.1167  -11.0500    0.0000 C   0  0
   -2.1167  -11.8750    0.0000 C   0  0
   -1.4046  -12.2833    0.0000 O   0  0
   -0.6926  -11.8750    0.0000 C   0  0
   -0.6926  -11.0500    0.0000 C   0  0
   -1.4046  -10.6333    0.0000 C   0  0
   -2.8344  -10.6448    0.0000 S   0  0
   -3.2427  -11.3616    0.0000 O   0  0
   -2.4177  -11.3568    0.0000 O   0  0
   -5.7014   -5.7083    0.0000 C   0  0
   -5.7026   -6.5357    0.0000 C   0  0
   -4.9878   -6.9485    0.0000 C   0  0
   -4.9896   -5.2955    0.0000 C   0  0
   -4.2742   -5.7047    0.0000 C   0  0
   -4.2734   -6.5315    0.0000 C   0  0
   -3.5581   -6.9425    0.0000 N   0  0
   -2.8431   -6.5277    0.0000 C   0  0
   -2.8479   -5.6977    0.0000 C   0  0
   -3.5638   -5.2905    0.0000 C   0  0
   -2.1270   -6.9374    0.0000 C   0  0
   -3.5681   -4.4655    0.0000 C   0  0
   -4.9859   -7.7735    0.0000 O   0  0
   -4.2704   -8.1844    0.0000 C   0  0
   -4.2685   -9.0094    0.0000 C   0  0
   -4.9846   -9.4192    0.0000 C   0  0
   -4.9831  -10.2434    0.0000 C   0  0
   -4.2671  -10.6551    0.0000 C   0  0
   -3.5512  -10.2365    0.0000 C   0  0
   -3.5563   -9.4136    0.0000 C   0  0
   -5.6987   -9.0060    0.0000 Cl  0  0
   -2.8446   -8.9963    0.0000 Cl  0  0
   -2.1223  -10.2281    0.0000 N   0  0
   -0.6934  -10.2198    0.0000 C   0  0
    0.0223  -10.6301    0.0000 N   0  0
   -0.6959   -9.3948    0.0000 O   0  0
    0.0213  -11.4550    0.0000 C   0  0
    0.7329  -11.8653    0.0000 C   0  0
    1.4480  -10.6281    0.0000 C   0  0
    0.7318  -10.2133    0.0000 C   0  0
    2.1627  -11.8671    0.0000 C   0  0
    2.8775  -11.4551    0.0000 C   0  0
    3.5916  -11.8681    0.0000 C   0  0
    4.3064  -11.4561    0.0000 C   0  0
    5.0206  -11.8691    0.0000 C   0  0
    5.7353  -11.4571    0.0000 C   0  0
    6.4495  -11.8701    0.0000 N   0  3
    7.1643  -11.4581    0.0000 C   0  0
    6.4490  -12.6951    0.0000 C   0  0
    6.4417  -11.0417    0.0000 C   0  0
    4.6284  -10.0238    0.0000 F   0  0
    5.3428   -9.6113    0.0000 C   0  0
    6.0573  -10.0238    0.0000 F   0  0
    5.3367  -10.4321    0.0000 F   0  0
    5.3459   -8.7863    0.0000 C   0  0
    6.0619   -8.3765    0.0000 O   0  5
    4.6330   -8.3711    0.0000 O   0  0
  6  7  1  0
 25 26  2  0
 15 14  2  0
 26 27  1  0
 14 11  1  0
 27 28  2  0
  9  8  2  0
 28 29  1  0
  8 10  2  0
 29 30  2  0
 30 25  1  0
 15 16  1  0
 26 31  1  0
 30 32  1  0
 29  8  1  0
 16 17  1  0
  8 33  1  0
 33  7  1  0
  2  3  1  0
  7 34  1  0
 17 18  2  0
 34 35  1  0
  2  7  1  0
 34 36  2  0
 35 37  1  0
 18 19  1  0
  3  4  1  0
 19 20  2  0
 20 15  1  0
 35 40  1  0
 37 38  1  0
 38  1  1  0
  1 39  1  0
 39 40  1  0
  4  5  1  0
  1 41  1  0
 18 21  1  0
 41 42  1  0
 11 12  2  0
 42 43  1  0
 20 22  1  0
 43 44  1  0
  5  6  1  0
 44 45  1  0
 13 23  1  0
 45 46  1  0
 12 13  1  0
 46 47  1  0
 23 24  1  0
 47 48  1  0
 13 16  2  0
 47 49  1  0
 24 25  1  0
 47 50  1  0
 51 52  1  0
 52 54  1  0
 52 55  1  0
 52 53  1  0
 55 56  1  0
 55 57  2  0
M  CHG  2  47   1  56  -1
M  END