
  Mrv0541 04051115152D          

 19 19  0  0  0  0            999 V2000
    0.6760   -0.0752    0.0000 N   0  0  0  0  0  0  0  0  0  0  0  0
   -0.0384    0.3373    0.0000 C   0  0  0  0  0  0  0  0  0  0  0  0
   -0.0384    1.1623    0.0000 O   0  0  0  0  0  0  0  0  0  0  0  0
   -0.7529   -0.0752    0.0000 N   0  0  0  0  0  0  0  0  0  0  0  0
   -0.7529   -0.9002    0.0000 C   0  0  0  0  0  0  0  0  0  0  0  0
   -1.4674   -1.3127    0.0000 O   0  0  0  0  0  0  0  0  0  0  0  0
   -0.0384   -1.3127    0.0000 C   0  0  0  0  0  0  0  0  0  0  0  0
    0.6760   -0.9002    0.0000 C   0  0  0  0  0  0  0  0  0  0  0  0
    1.3905    0.3373    0.0000 C   0  0  0  0  0  0  0  0  0  0  0  0
    2.1050   -0.0752    0.0000 C   0  0  2  0  0  0  0  0  0  0  0  0
    2.1050   -0.9002    0.0000 N   0  0  0  0  0  0  0  0  0  0  0  0
    2.8194    0.3373    0.0000 C   0  0  0  0  0  0  0  0  0  0  0  0
    3.5339   -0.0752    0.0000 O   0  0  0  0  0  0  0  0  0  0  0  0
    2.8194    1.1623    0.0000 O   0  0  0  0  0  0  0  0  0  0  0  0
   -1.4674    0.3373    0.0000 C   0  0  0  0  0  0  0  0  0  0  0  0
   -2.1819   -0.0752    0.0000 C   0  0  0  0  0  0  0  0  0  0  0  0
   -2.8963    0.3373    0.0000 C   0  0  0  0  0  0  0  0  0  0  0  0
   -3.6108   -0.0752    0.0000 O   0  0  0  0  0  0  0  0  0  0  0  0
   -2.8963    1.1623    0.0000 O   0  0  0  0  0  0  0  0  0  0  0  0
  8  1  1  0  0  0  0
  9  1  1  0  0  0  0
  2  1  1  0  0  0  0
  2  4  1  0  0  0  0
  2  3  2  0  0  0  0
  5  4  1  0  0  0  0
 15  4  1  0  0  0  0
  5  7  1  0  0  0  0
  5  6  2  0  0  0  0
  7  8  2  0  0  0  0
  9 10  1  0  0  0  0
 10 11  1  1  0  0  0
 10 12  1  0  0  0  0
 12 13  2  0  0  0  0
 12 14  1  0  0  0  0
 15 16  1  0  0  0  0
 17 16  1  0  0  0  0
 17 19  2  0  0  0  0
 17 18  1  0  0  0  0
M  END