
  CDK    9/16/09,9:56

 26 29  0  0  0  0  0  0  0  0999 V2000
   -3.9096  -15.9727    0.0000 C   0  0  0  0  0  0  0  0  0  0  0  0
   -3.9096  -16.8024    0.0000 C   0  0  0  0  0  0  0  0  0  0  0  0
   -3.1950  -17.2149    0.0000 N   0  0  0  0  0  0  0  0  0  0  0  0
   -2.4761  -16.8024    0.0000 C   0  0  0  0  0  0  0  0  0  0  0  0
   -2.4761  -15.9727    0.0000 C   0  0  0  0  0  0  0  0  0  0  0  0
   -3.1950  -15.5557    0.0000 O   0  0  0  0  0  0  0  0  0  0  0  0
   -3.1949  -18.0445    0.0000 C   0  0  0  0  0  0  0  0  0  0  0  0
   -3.8629  -18.5285    0.0000 C   0  0  0  0  0  0  0  0  0  0  0  0
   -3.6091  -19.3135    0.0000 C   0  0  0  0  0  0  0  0  0  0  0  0
   -2.7841  -19.3146    0.0000 C   0  0  0  0  0  0  0  0  0  0  0  0
   -2.5281  -18.5303    0.0000 C   0  0  0  0  0  0  0  0  0  0  0  0
   -1.7612  -15.5610    0.0000 C   0  0  0  0  0  0  0  0  0  0  0  0
   -1.0471  -15.9742    0.0000 O   0  0  0  0  0  0  0  0  0  0  0  0
   -0.3322  -15.5624    0.0000 C   0  0  0  0  0  0  0  0  0  0  0  0
    0.3786  -15.9795    0.0000 C   0  0  0  0  0  0  0  0  0  0  0  0
    1.0930  -15.5684    0.0000 C   0  0  0  0  0  0  0  0  0  0  0  0
    1.0943  -14.7425    0.0000 C   0  0  0  0  0  0  0  0  0  0  0  0
    0.3752  -14.3295    0.0000 C   0  0  0  0  0  0  0  0  0  0  0  0
   -0.3363  -14.7430    0.0000 C   0  0  0  0  0  0  0  0  0  0  0  0
    1.8086  -14.3298    0.0000 C   0  0  0  0  0  0  0  0  0  0  0  0
    2.5232  -14.7421    0.0000 N   0  0  0  0  0  0  0  0  0  0  0  0
    2.5191  -15.5659    0.0000 C   0  0  0  0  0  0  0  0  0  0  0  0
    3.2296  -15.9780    0.0000 C   0  0  0  0  0  0  0  0  0  0  0  0
    3.9463  -15.5688    0.0000 O   0  0  0  0  0  0  0  0  0  0  0  0
    3.9481  -14.7428    0.0000 C   0  0  0  0  0  0  0  0  0  0  0  0
    3.2330  -14.3261    0.0000 C   0  0  0  0  0  0  0  0  0  0  0  0
  5  6  1  0  0  0  0 
 12 13  1  0  0  0  0 
  7  8  1  0  0  0  0 
 13 14  1  0  0  0  0 
 14 15  2  0  0  0  0 
  1  2  1  0  0  0  0 
 15 16  1  0  0  0  0 
  1  6  1  0  0  0  0 
 16 17  2  0  0  0  0 
  2  3  1  0  0  0  0 
 17 18  1  0  0  0  0 
  3  4  1  0  0  0  0 
 18 19  2  0  0  0  0 
 19 14  1  0  0  0  0 
  8  9  1  0  0  0  0 
 17 20  1  0  0  0  0 
  9 10  1  0  0  0  0 
 20 21  1  0  0  0  0 
 21 22  1  0  0  0  0 
 10 11  1  0  0  0  0 
 11  7  1  0  0  0  0 
  3  7  1  0  0  0  0 
  4  5  1  0  0  0  0 
  5 12  1  1  0  0  0 
 21 26  1  0  0  0  0 
 22 23  1  0  0  0  0 
 23 24  1  0  0  0  0 
 24 25  1  0  0  0  0 
 25 26  1  0  0  0  0 
M  END