
          11280714452D 1   1.00000     0.00000     0

 24 26  0     0  0            999 V2000
    7.1500   -2.8875    0.0000 C   0  0  0  0  0  0           0  0  0
    7.1500   -2.0625    0.0000 C   0  0  0  0  0  0           0  0  0
    3.5792   -3.2917    0.0000 N   0  0  0  0  0  0           0  0  0
    7.8625   -1.6417    0.0000 C   0  0  0  0  0  0           0  0  0
    7.8542   -0.8167    0.0000 C   0  0  0  0  0  0           0  0  0
    6.4292   -3.3000    0.0000 C   0  0  0  0  0  0           0  0  0
    5.7167   -2.8875    0.0000 C   0  0  0  0  0  0           0  0  0
    5.0042   -3.3000    0.0000 C   0  0  0  0  0  0           0  0  0
    2.8667   -2.8875    0.0000 C   0  0  0  0  0  0           0  0  0
    7.8625   -3.3000    0.0000 C   0  0  0  0  0  0           0  0  0
    4.2917   -2.8875    0.0000 C   0  0  0  0  0  0           0  0  0
    7.1417   -0.4042    0.0000 O   0  0  0  0  0  0           0  0  0
    8.5792   -2.0542    0.0000 C   0  0  0  0  0  0           0  0  0
    6.4292   -4.1250    0.0000 O   0  0  0  0  0  0           0  0  0
    8.5792   -2.8875    0.0000 C   0  0  0  0  0  0           0  0  0
    2.8667   -2.0625    0.0000 C   0  0  0  0  0  0           0  0  0
    3.5792   -1.6417    0.0000 C   0  0  0  0  0  0           0  0  0
    8.5667   -0.4042    0.0000 O   0  0  0  0  0  0           0  0  0
    4.2917   -2.0542    0.0000 C   0  0  0  0  0  0           0  0  0
    7.8625   -4.1250    0.0000 O   0  0  0  0  0  0           0  0  0
    2.1625   -3.3000    0.0000 C   0  0  0  0  0  0           0  0  0
    2.1542   -1.6500    0.0000 C   0  0  0  0  0  0           0  0  0
    1.4417   -2.8917    0.0000 C   0  0  0  0  0  0           0  0  0
    1.4417   -2.0667    0.0000 C   0  0  0  0  0  0           0  0  0
  2  1  2  0     0  0
  3 11  1  0     0  0
  4  2  1  0     0  0
  5  4  1  0     0  0
  6  1  1  0     0  0
  7  6  1  0     0  0
  8  7  2  0     0  0
  9  3  2  0     0  0
 10  1  1  0     0  0
 11  8  1  0     0  0
 12  5  2  0     0  0
 13 15  1  0     0  0
 14  6  2  0     0  0
 15 10  2  0     0  0
 16 17  2  0     0  0
 17 19  1  0     0  0
 18  5  1  0     0  0
 19 11  2  0     0  0
 20 10  1  0     0  0
 21  9  1  0     0  0
 22 16  1  0     0  0
 23 21  2  0     0  0
 24 22  2  0     0  0
  4 13  2  0     0  0
 16  9  1  0     0  0
 23 24  1  0     0  0
M  END