
  SciTegic12201110432D

  7  7  0  0  0  0            999 V2000
   -0.0147   -1.0607    0.0000 N   0  0
   -0.7292   -0.6482    0.0000 C   0  0
   -0.7292    0.1768    0.0000 C   0  0
   -0.0147    0.5893    0.0000 C   0  0
    0.6998    0.1768    0.0000 C   0  0
    0.6998   -0.6482    0.0000 C   0  0
   -0.0147    1.4143    0.0000 N   0  0
  2  1  1  0
  6  1  2  0
  2  3  2  0
  3  4  1  0
  4  5  2  0
  4  7  1  0
  5  6  1  0
M  END