
  CDK    9/16/09,10:4

 27 29  0  0  0  0  0  0  0  0999 V2000
   -1.7042  -11.2458    0.0000 C   0  0  0  0  0  0  0  0  0  0  0  0
   -0.9897  -10.8333    0.0000 N   0  0  0  0  0  0  0  0  0  0  0  0
   -2.4186  -10.8333    0.0000 N   0  0  0  0  0  0  0  0  0  0  0  0
   -1.7042  -12.0708    0.0000 S   0  0  0  0  0  0  0  0  0  0  0  0
   -3.1331  -11.2458    0.0000 C   0  0  0  0  0  0  0  0  0  0  0  0
   -3.8470  -10.8302    0.0000 C   0  0  0  0  0  0  0  0  0  0  0  0
   -4.5610  -11.2420    0.0000 C   0  0  0  0  0  0  0  0  0  0  0  0
   -4.5614  -12.0679    0.0000 C   0  0  0  0  0  0  0  0  0  0  0  0
   -3.8419  -12.4802    0.0000 C   0  0  0  0  0  0  0  0  0  0  0  0
   -3.1309  -12.0660    0.0000 C   0  0  0  0  0  0  0  0  0  0  0  0
   -0.2752  -11.2458    0.0000 C   0  0  0  0  0  0  0  0  0  0  0  0
   -0.2778  -12.0719    0.0000 C   0  0  0  0  0  0  0  0  0  0  0  0
    0.4359  -12.4843    0.0000 C   0  0  0  0  0  0  0  0  0  0  0  0
    0.4344  -10.8338    0.0000 C   0  0  0  0  0  0  0  0  0  0  0  0
    1.1487  -11.2425    0.0000 C   0  0  0  0  0  0  0  0  0  0  0  0
    1.1523  -12.0703    0.0000 C   0  0  0  0  0  0  0  0  0  0  0  0
    1.8678  -12.4811    0.0000 S   0  0  0  0  0  0  0  0  0  0  0  0
    2.5792  -12.8917    0.0000 N   0  0  0  0  0  0  0  0  0  0  0  0
    2.2794  -11.7661    0.0000 O   0  0  0  0  0  0  0  0  0  0  0  0
    1.4593  -13.1979    0.0000 O   0  0  0  0  0  0  0  0  0  0  0  0
    2.5793  -13.7167    0.0000 C   0  0  0  0  0  0  0  0  0  0  0  0
    1.9147  -14.2053    0.0000 N   0  0  0  0  0  0  0  0  0  0  0  0
    2.1698  -14.9899    0.0000 O   0  0  0  0  0  0  0  0  0  0  0  0
    2.9948  -14.9898    0.0000 C   0  0  0  0  0  0  0  0  0  0  0  0
    3.2495  -14.2051    0.0000 C   0  0  0  0  0  0  0  0  0  0  0  0
   -5.2754  -12.4813    0.0000 C   0  0  0  0  0  0  0  0  0  0  0  0
    3.4799  -15.6571    0.0000 C   0  0  0  0  0  0  0  0  0  0  0  0
 13 16  2  0  0  0  0 
  6  7  1  0  0  0  0 
 15 14  2  0  0  0  0 
 14 11  1  0  0  0  0 
 15 16  1  0  0  0  0 
  1  4  2  0  0  0  0 
  7  8  2  0  0  0  0 
 16 17  1  0  0  0  0 
  8  9  1  0  0  0  0 
 17 18  1  0  0  0  0 
  3  5  1  0  0  0  0 
 17 19  2  0  0  0  0 
  9 10  2  0  0  0  0 
 17 20  2  0  0  0  0 
 10  5  1  0  0  0  0 
 18 21  1  0  0  0  0 
 21 22  2  0  0  0  0 
  1  3  1  0  0  0  0 
  2 11  1  0  0  0  0 
  5  6  2  0  0  0  0 
 11 12  2  0  0  0  0 
 22 23  1  0  0  0  0 
 23 24  1  0  0  0  0 
 24 25  2  0  0  0  0 
 25 21  1  0  0  0  0 
  1  2  1  0  0  0  0 
  8 26  1  0  0  0  0 
 12 13  1  0  0  0  0 
 24 27  1  0  0  0  0 
M  END