
  Mrv0541 04051115152D          

 31 34  0  0  0  0            999 V2000
    1.1856   -2.5888    0.0000 N   0  0  0  0  0  0  0  0  0  0  0  0
   -0.2433   -0.9388    0.0000 C   0  0  0  0  0  0  0  0  0  0  0  0
   -0.2433   -0.1138    0.0000 C   0  0  0  0  0  0  0  0  0  0  0  0
   -0.9578    0.2987    0.0000 C   0  0  0  0  0  0  0  0  0  0  0  0
   -0.9578    1.1237    0.0000 C   0  0  0  0  0  0  0  0  0  0  0  0
    0.4712    1.1237    0.0000 C   0  0  0  0  0  0  0  0  0  0  0  0
    0.4712    2.7737    0.0000 C   0  0  0  0  0  0  0  0  0  0  0  0
   -0.2433    4.0112    0.0000 C   0  0  0  0  0  0  0  0  0  0  0  0
   -0.9578    2.7737    0.0000 C   0  0  0  0  0  0  0  0  0  0  0  0
    0.4712   -3.8263    0.0000 C   0  0  0  0  0  0  0  0  0  0  0  0
    2.6146   -0.9388    0.0000 C   0  0  0  0  0  0  0  0  0  0  0  0
    1.9001   -1.3513    0.0000 C   0  0  0  0  0  0  0  0  0  0  0  0
    1.1856   -0.9388    0.0000 C   0  0  0  0  0  0  0  0  0  0  0  0
    0.4712   -1.3513    0.0000 N   0  0  0  0  0  0  0  0  0  0  0  0
   -0.2433    1.5362    0.0000 C   0  0  0  0  0  0  0  0  0  0  0  0
    0.4712    0.2987    0.0000 C   0  0  0  0  0  0  0  0  0  0  0  0
   -0.2433    2.3612    0.0000 C   0  0  0  0  0  0  0  0  0  0  0  0
    0.4712    3.5987    0.0000 C   0  0  0  0  0  0  0  0  0  0  0  0
   -0.9578    3.5987    0.0000 C   0  0  0  0  0  0  0  0  0  0  0  0
   -1.6722    2.3612    0.0000 C   0  0  0  0  0  0  0  0  0  0  0  0
   -1.7585    1.5407    0.0000 N   0  0  0  0  0  0  0  0  0  0  0  0
   -2.5655    1.3692    0.0000 N   0  0  0  0  0  0  0  0  0  0  0  0
   -2.9780    2.0836    0.0000 N   0  0  0  0  0  0  0  0  0  0  0  0
   -2.4259    2.6967    0.0000 N   0  0  0  0  0  0  0  0  0  0  0  0
    1.1856   -3.4138    0.0000 C   0  0  0  0  0  0  0  0  0  0  0  0
    0.4712   -2.1763    0.0000 C   0  0  0  0  0  0  0  0  0  0  0  0
   -0.2433   -2.5888    0.0000 N   0  0  0  0  0  0  0  0  0  0  0  0
   -0.2433   -3.4138    0.0000 C   0  0  0  0  0  0  0  0  0  0  0  0
   -0.9578   -3.8263    0.0000 C   0  0  0  0  0  0  0  0  0  0  0  0
    1.9001   -3.8263    0.0000 C   0  0  0  0  0  0  0  0  0  0  0  0
    3.3290   -1.3513    0.0000 C   0  0  0  0  0  0  0  0  0  0  0  0
 26  1  1  0  0  0  0
  2 14  1  0  0  0  0
  2  3  1  0  0  0  0
  3  4  2  0  0  0  0
  4  5  1  0  0  0  0
  6 16  2  0  0  0  0
 18  8  2  0  0  0  0
 17  9  1  0  0  0  0
 28 10  2  0  0  0  0
 11 31  1  0  0  0  0
 11 12  1  0  0  0  0
 12 13  1  0  0  0  0
 13 14  1  0  0  0  0
  5 15  2  0  0  0  0
  6 15  1  0  0  0  0
 16  3  1  0  0  0  0
 17  7  2  0  0  0  0
 17 15  1  0  0  0  0
  7 18  1  0  0  0  0
  8 19  1  0  0  0  0
 19  9  2  0  0  0  0
  9 20  1  0  0  0  0
 20 21  1  0  0  0  0
 21 22  2  0  0  0  0
 22 23  1  0  0  0  0
 23 24  1  0  0  0  0
 20 24  2  0  0  0  0
 25  1  2  0  0  0  0
 25 10  1  0  0  0  0
 26 14  1  0  0  0  0
 26 27  2  0  0  0  0
 28 27  1  0  0  0  0
 28 29  1  0  0  0  0
 25 30  1  0  0  0  0
M  END