
  CDK    9/16/09,9:52

 33 36  0  0  0  0  0  0  0  0999 V2000
   12.1122  -16.4652    0.0000 C   0  0  0  0  0  0  0  0  0  0  0  0
   12.8287  -16.0519    0.0000 C   0  0  0  0  0  0  0  0  0  0  0  0
   12.8258  -15.2213    0.0000 C   0  0  0  0  0  0  0  0  0  0  0  0
   12.1104  -14.8122    0.0000 C   0  0  0  0  0  0  0  0  0  0  0  0
   11.3974  -16.0523    0.0000 C   0  0  0  0  0  0  0  0  0  0  0  0
   11.3940  -15.2234    0.0000 C   0  0  0  0  0  0  0  0  0  0  0  0
   13.5387  -14.8061    0.0000 C   0  0  0  0  0  0  0  0  0  0  0  0
   14.2547  -15.2159    0.0000 N   0  0  0  0  0  0  0  0  0  0  0  0
   13.5356  -13.9811    0.0000 O   0  0  0  0  0  0  0  0  0  0  0  0
   14.9677  -14.8008    0.0000 C   0  0  0  0  0  0  0  0  0  0  0  0
   15.6837  -15.2106    0.0000 C   0  0  0  0  0  0  0  0  0  0  0  0
   15.6837  -16.0344    0.0000 C   0  0  0  0  0  0  0  0  0  0  0  0
   16.3988  -16.4441    0.0000 C   0  0  0  0  0  0  0  0  0  0  0  0
   17.1127  -16.0289    0.0000 C   0  0  0  0  0  0  0  0  0  0  0  0
   17.1070  -15.1996    0.0000 C   0  0  0  0  0  0  0  0  0  0  0  0
   16.3912  -14.7937    0.0000 C   0  0  0  0  0  0  0  0  0  0  0  0
   17.8144  -14.7833    0.0000 C   0  0  0  0  0  0  0  0  0  0  0  0
   18.5322  -15.1923    0.0000 C   0  0  0  0  0  0  0  0  0  0  0  0
   19.2431  -14.7753    0.0000 C   0  0  0  0  0  0  0  0  0  0  0  0
   19.2375  -13.9494    0.0000 C   0  0  0  0  0  0  0  0  0  0  0  0
   18.5151  -13.5424    0.0000 C   0  0  0  0  0  0  0  0  0  0  0  0
   17.8071  -13.9617    0.0000 C   0  0  0  0  0  0  0  0  0  0  0  0
   19.9604  -15.1829    0.0000 C   0  0  0  0  0  0  0  0  0  0  0  0
   20.6720  -14.7656    0.0000 N   0  0  0  0  0  0  0  0  0  0  0  0
   21.3856  -15.1748    0.0000 C   0  0  0  0  0  0  0  0  0  0  0  0
   22.0951  -14.7610    0.0000 C   0  0  0  0  0  0  0  0  0  0  0  0
   22.0938  -13.9357    0.0000 N   0  0  0  0  0  0  0  0  0  0  0  0
   21.3766  -13.5258    0.0000 C   0  0  0  0  0  0  0  0  0  0  0  0
   20.6609  -13.9414    0.0000 C   0  0  0  0  0  0  0  0  0  0  0  0
   17.8293  -16.4378    0.0000 F   0  0  0  0  0  0  0  0  0  0  0  0
   22.8108  -15.1713    0.0000 C   0  0  0  0  0  0  0  0  0  0  0  0
   10.6776  -14.8146    0.0000 C   0  0  0  0  0  0  0  0  0  0  0  0
    9.9628  -14.4026    0.0000 N   0  0  0  0  0  0  0  0  0  0  0  0
 16 11  1  0  0  0  0 
  7  8  1  0  0  0  0 
  3  4  2  0  0  0  0 
 17 18  2  0  0  0  0 
  7  9  2  0  0  0  0 
 18 19  1  0  0  0  0 
  4  6  1  0  0  0  0 
 19 20  2  0  0  0  0 
  8 10  1  0  0  0  0 
 20 21  1  0  0  0  0 
  5  6  2  0  0  0  0 
 21 22  2  0  0  0  0 
 22 17  1  0  0  0  0 
 15 17  1  0  0  0  0 
 10 11  1  0  0  0  0 
 19 23  1  0  0  0  0 
  1  2  2  0  0  0  0 
 23 24  1  0  0  0  0 
 24 25  1  0  0  0  0 
 11 12  2  0  0  0  0 
  5  1  1  0  0  0  0 
 12 13  1  0  0  0  0 
  2  3  1  0  0  0  0 
 13 14  2  0  0  0  0 
 24 29  1  0  0  0  0 
 25 26  1  0  0  0  0 
 26 27  1  0  0  0  0 
 27 28  1  0  0  0  0 
 28 29  1  0  0  0  0 
  3  7  1  0  0  0  0 
 14 30  1  0  0  0  0 
 14 15  1  0  0  0  0 
 26 31  1  1  0  0  0 
 15 16  2  0  0  0  0 
 32 33  3  0  0  0  0 
  6 32  1  0  0  0  0 
M  END