
  SciTegic09291413392D

 29 33  0  0  0  0            999 V2000
    5.8455   -9.2569    0.0000 C   0  0
    6.5620   -8.8435    0.0000 C   0  0
    6.5591   -8.0130    0.0000 C   0  0
    5.8437   -7.6038    0.0000 C   0  0
    7.2720   -7.5978    0.0000 C   0  0
    7.9852   -8.0106    0.0000 C   0  0
    7.9740   -6.3606    0.0000 C   0  0
    7.2645   -6.7774    0.0000 N   0  0
    8.6950   -6.7702    0.0000 C   0  0
    8.6934   -7.5939    0.0000 N   0  0
    9.4763   -7.8501    0.0000 C   0  0
    9.9619   -7.1846    0.0000 C   0  0
    9.4790   -6.5172    0.0000 N   0  0
    7.9680   -5.5357    0.0000 N   0  0
    7.2505   -5.1283    0.0000 C   0  0
    7.2479   -4.3056    0.0000 C   0  0
    6.5312   -3.8985    0.0000 C   0  0
    5.8187   -4.3162    0.0000 C   0  0
    5.8275   -5.1455    0.0000 C   0  0
    6.5447   -5.5489    0.0000 C   0  0
    5.1175   -5.5656    0.0000 O   0  0
    4.3986   -5.1609    0.0000 C   0  0
    5.1007   -3.9099    0.0000 O   0  0
    5.0937   -3.0850    0.0000 C   0  0
    5.1307   -8.8440    0.0000 C   0  0
    5.1273   -8.0150    0.0000 C   0  0
    4.3379   -7.7621    0.0000 N   0  0
    3.8535   -8.4347    0.0000 N   0  0
    4.3434   -9.1032    0.0000 C   0  0
 25  1  1  0
  1  2  2  0
  2  3  1  0
  3  4  2  0
  4 26  1  0
  3  5  1  0
  5  6  2  0
  6 10  1  0
  9  7  1  0
  7  8  2  0
  8  5  1  0
  9 10  1  0
 10 11  1  0
 11 12  2  0
 12 13  1  0
 13  9  2  0
  7 14  1  0
 14 15  1  0
 15 16  2  0
 16 17  1  0
 17 18  2  0
 18 19  1  0
 19 20  2  0
 20 15  1  0
 19 21  1  0
 21 22  1  0
 18 23  1  0
 23 24  1  0
 25 26  2  0
 26 27  1  0
 27 28  1  0
 28 29  2  0
 29 25  1  0
M  END