
  SciTegic11201309402D

 80 83  0  0  1  0            999 V2000
    8.6042   -2.6667    0.0000 N   0  0
    7.8917   -3.0667    0.0000 C   0  0
   10.1375   -3.0667    0.0000 C   0  0
    1.5042   -2.6792    0.0000 C   0  0
   -0.7583   -1.3167    0.0000 C   0  0
    7.1875   -2.6667    0.0000 C   0  0  1  0  0  0
    0.0875   -2.6917    0.0000 N   0  0
   -0.6250   -3.0917    0.0000 C   0  0
    9.4292   -2.6667    0.0000 C   0  0  1  0  0  0
    5.7667   -2.6667    0.0000 C   0  0
    6.4750   -3.0750    0.0000 N   0  0
    3.6375   -3.0792    0.0000 C   0  0
    0.3542   -0.8417    0.0000 N   0  0
    4.3417   -2.6792    0.0000 N   0  0
    0.7917   -3.0875    0.0000 C   0  0  1  0  0  0
    2.2167   -3.0875    0.0000 N   0  0
   10.8542   -2.6667    0.0000 N   0  0
    5.0542   -3.0750    0.0000 C   0  0  1  0  0  0
   -0.0333   -1.4750    0.0000 C   0  0
   -2.7625   -2.6917    0.0000 C   0  0
    5.0542   -3.8792    0.0000 C   0  0
   -1.3333   -2.6917    0.0000 C   0  0  2  0  0  0
   12.2667   -2.6417    0.0000 C   0  0
   13.0417   -6.2542    0.0000 C   0  0
   -2.0458   -3.0917    0.0000 N   0  0
    4.3375    0.5458    0.0000 C   0  0
   -0.8208   -0.5792    0.0000 C   0  0
   -1.3458   -1.8875    0.0000 C   0  0
   -3.4708   -3.0917    0.0000 C   0  0
    5.7667   -4.2792    0.0000 C   0  0
   12.9917   -3.0375    0.0000 N   0  0
    2.9250   -2.6792    0.0000 C   0  0  2  0  0  0
   -0.1375   -0.3000    0.0000 C   0  0
   11.5667   -3.0625    0.0000 C   0  0  2  0  0  0
   -4.1833   -2.6917    0.0000 C   0  0
   14.4125   -3.0125    0.0000 C   0  0
   12.3417   -6.6750    0.0000 N   0  0
    7.8917   -3.8750    0.0000 O   0  0
   10.1292   -3.8750    0.0000 O   0  0
    1.5000   -1.8792    0.0000 O   0  0
   -0.6250   -3.9000    0.0000 O   0  0
    5.7542   -1.8667    0.0000 O   0  0
    3.6292   -3.8875    0.0000 O   0  0
    5.0500    0.9583    0.0000 O   0  0
   -2.7625   -1.8875    0.0000 O   0  0
   12.2542   -1.8417    0.0000 O   0  0
    6.4792   -3.8792    0.0000 O   0  0
   14.4250   -3.8167    0.0000 O   0  0
   13.0292   -5.4542    0.0000 N   0  0
    4.3375   -0.2542    0.0000 N   0  0
   13.7000   -2.6167    0.0000 C   0  0
   13.7667   -6.6500    0.0000 N   0  0
    3.6292    0.9458    0.0000 N   0  0
    8.3500   -1.8917    0.0000 C   0  0
   -4.1833   -3.5000    0.0000 S   0  0
    0.7917   -3.8917    0.0000 C   0  0  2  0  0  0
    5.7667   -5.0875    0.0000 N   0  0
   15.1250   -2.5917    0.0000 N   0  0
    7.1792   -1.8667    0.0000 C   0  0
    7.8875   -1.4542    0.0000 S   0  0
    9.6792   -1.8917    0.0000 C   0  0
    9.0167   -1.4250    0.0000 C   0  0
   -1.4208   -0.1417    0.0000 C   0  0
    2.9167   -1.8792    0.0000 C   0  0
   -4.8958   -3.0917    0.0000 C   0  0
   -4.1833   -1.8875    0.0000 C   0  0
   11.5792   -3.8667    0.0000 C   0  0
   -0.0458    0.4333    0.0000 C   0  0
    3.6292   -0.6667    0.0000 C   0  0
   12.3167   -5.0625    0.0000 C   0  0
    0.0875   -4.2917    0.0000 C   0  0
    1.5125   -4.2917    0.0000 C   0  0
   12.2917   -4.2542    0.0000 C   0  0
    3.6292   -1.4667    0.0000 C   0  0
    0.0875   -5.1000    0.0000 C   0  0
   -1.3333    0.5875    0.0000 C   0  0
   -5.6125   -2.6917    0.0000 C   0  0
   -4.8958   -1.4875    0.0000 C   0  0
   -0.6458    0.8708    0.0000 C   0  0
   -5.6125   -1.8875    0.0000 C   0  0
  2  1  1  0
  9  3  1  6
  4 16  1  0
  5 28  1  0
  6  2  1  0
 15  7  1  6
  8  7  1  0
  9  1  1  0
 10 11  1  0
  6 11  1  1
 12 14  1  0
 13 19  1  0
 18 14  1  6
 15  4  1  0
 32 16  1  6
 17  3  1  0
 18 10  1  0
 19  5  2  0
 20 25  1  0
 18 21  1  0
 22  8  1  0
 23 34  1  0
 24 49  2  0
 22 25  1  6
 26 50  1  0
 27  5  1  0
 22 28  1  0
 29 20  1  0
 30 21  1  0
 31 23  1  0
 32 12  1  0
 33 27  2  0
 34 17  1  6
 35 29  1  0
 36 51  1  0
 37 24  1  0
 38  2  2  0
 39  3  2  0
 40  4  2  0
 41  8  2  0
 42 10  2  0
 43 12  2  0
 44 26  2  0
 45 20  2  0
 46 23  2  0
 47 30  2  0
 48 36  2  0
 49 70  1  0
 50 69  1  0
 51 31  1  0
 52 24  1  0
 53 26  1  0
 54  1  1  0
 55 35  1  0
 15 56  1  0
 57 30  1  0
 58 36  1  0
  6 59  1  0
 60 59  1  0
  9 61  1  0
 62 54  1  0
 63 27  1  0
 32 64  1  0
 65 35  1  0
 66 35  1  0
 34 67  1  0
 68 33  1  0
 69 74  1  0
 70 73  1  0
 71 56  1  0
 56 72  1  1
 73 67  1  0
 74 64  1  0
 75 71  1  0
 76 63  2  0
 77 65  1  0
 78 66  1  0
 79 76  1  0
 80 78  1  0
 61 62  1  0
 33 13  1  0
 68 79  2  0
 77 80  1  0
M  END