
  SciTegic11261311332D

 31 35  0  0  0  0            999 V2000
    3.4433   -3.1181    0.0000 N   0  0
    4.8689   -3.1264    0.0000 C   0  0
    3.4391   -2.2928    0.0000 C   0  0
    8.0079   -2.1052    0.0000 C   0  0
    7.0074   -2.6929    0.0000 N   0  0
    8.7207   -1.6883    0.0000 N   0  0
    4.1561   -3.5308    0.0000 C   0  0
    4.8647   -3.9518    0.0000 C   0  0
    2.7305   -3.5308    0.0000 C   0  0
    7.2158   -1.9009    0.0000 C   0  0
    7.8078   -2.9055    0.0000 C   0  0
    5.5651   -5.1899    0.0000 C   0  0
    5.5693   -4.3645    0.0000 C   0  0
    2.0176   -3.1181    0.0000 C   0  0
    1.6049   -2.4136    0.0000 C   0  0
    1.1922   -3.1306    0.0000 C   0  0
    4.8439   -5.5943    0.0000 C   0  0
    4.8689   -2.2928    0.0000 C   0  0
    4.1561   -1.8801    0.0000 C   0  0
    2.7305   -1.8759    0.0000 O   0  0
    5.5818   -2.7054    0.0000 C   0  0
    4.1436   -4.3520    0.0000 C   0  0
    4.1311   -5.1774    0.0000 C   0  0
    6.2946   -3.1139    0.0000 C   0  0
   10.2964   -1.2131    0.0000 O   0  0
    6.2779   -5.6068    0.0000 Cl  0  0
    4.8397   -6.4196    0.0000 Cl  0  0
    9.3210   -2.2552    0.0000 C   0  0
    8.9083   -0.8879    0.0000 C   0  0
   10.1088   -2.0176    0.0000 C   0  0
    9.6962   -0.6503    0.0000 C   0  0
  2  7  1  0
  3  1  1  0
  4 11  1  0
  5 24  1  0
  6  4  1  0
  7  1  1  0
  8  2  1  0
  1  9  1  0
 10  5  1  0
 11  5  1  0
 12 13  2  0
 13  8  1  0
 14  9  1  0
 15 14  1  0
 16 14  1  0
 17 23  2  0
 18  2  1  0
 19  3  1  0
 20  3  2  0
 21  2  1  0
 22  8  2  0
 23 22  1  0
 24 21  1  0
 25 31  1  0
 26 12  1  0
 27 17  1  0
 28  6  1  0
 29  6  1  0
 30 28  1  0
 31 29  1  0
 18 19  1  0
 16 15  1  0
 10  4  1  0
 12 17  1  0
 30 25  1  0
M  END