
          02060813472D 1   1.00000     0.00000     0

 35 38  0     1  0            999 V2000
    8.3625  -14.9375    0.0000 C   0  0  0  0  0  0           0  0  0
    8.3625  -15.7625    0.0000 O   0  0  0  0  0  0           0  0  0
    9.0745  -16.1708    0.0000 C   0  0  0  0  0  0           0  0  0
    9.7865  -15.7625    0.0000 C   0  0  0  0  0  0           0  0  0
    9.7865  -14.9375    0.0000 N   0  0  3  0  0  0           0  0  0
    9.0745  -14.5208    0.0000 C   0  0  0  0  0  0           0  0  0
   10.5022  -14.5271    0.0000 C   0  0  0  0  0  0           0  0  0
   11.2155  -14.9417    0.0000 C   0  0  0  0  0  0           0  0  0
   10.5046  -13.7021    0.0000 O   0  0  0  0  0  0           0  0  0
   11.9312  -14.5313    0.0000 C   0  0  2  0  0  0           0  0  0
   12.6451  -14.9511    0.0000 C   0  0  0  0  0  0           0  0  0
   13.3586  -14.5442    0.0000 N   0  0  0  0  0  0           0  0  0
   11.9356  -13.7063    0.0000 C   0  0  0  0  0  0           0  0  0
   12.6522  -13.3021    0.0000 C   0  0  3  0  0  0           0  0  0
   13.3656  -13.7226    0.0000 C   0  0  0  0  0  0           0  0  0
   14.0825  -13.3173    0.0000 C   0  0  0  0  0  0           0  0  0
   14.0923  -12.4898    0.0000 C   0  0  0  0  0  0           0  0  0
   13.3789  -12.0693    0.0000 C   0  0  0  0  0  0           0  0  0
   12.6557  -12.4762    0.0000 C   0  0  0  0  0  0           0  0  0
   14.0709  -14.9605    0.0000 C   0  0  3  0  0  0           0  0  0
   14.7875  -14.5518    0.0000 C   0  0  0  0  0  0           0  0  0
   12.6396  -15.7761    0.0000 O   0  0  0  0  0  0           0  0  0
   15.5000  -14.1333    0.0000 N   0  0  0  0  0  0           0  0  0
   14.7833  -15.3708    0.0000 C   0  0  0  0  0  0           0  0  0
   13.3542  -15.3667    0.0000 C   0  0  0  0  0  0           0  0  0
   13.3500  -16.1917    0.0000 C   0  0  0  0  0  0           0  0  0
   14.7792  -16.1958    0.0000 C   0  0  0  0  0  0           0  0  0
   14.0626  -16.6047    0.0000 N   0  0  3  0  0  0           0  0  0
   14.0598  -17.4297    0.0000 C   0  0  0  0  0  0           0  0  0
   13.3440  -17.8398    0.0000 C   0  0  0  0  0  0           0  0  0
   12.6345  -17.4211    0.0000 C   0  0  0  0  0  0           0  0  0
   11.9191  -17.8305    0.0000 C   0  0  0  0  0  0           0  0  0
   11.9159  -18.6564    0.0000 C   0  0  0  0  0  0           0  0  0
   12.6340  -19.0711    0.0000 C   0  0  0  0  0  0           0  0  0
   13.3464  -18.6594    0.0000 C   0  0  0  0  0  0           0  0  0
 14 19  1  0     0  0
 15 16  1  0     0  0
 16 17  1  0     0  0
 17 18  1  0     0  0
 18 19  1  0     0  0
  2  3  1  0     0  0
 20 12  1  0     0  0
  8 10  1  0     0  0
 20 21  1  0     0  0
 10 11  1  0     0  0
 11 22  2  0     0  0
  3  4  1  0     0  0
 21 23  3  0     0  0
  4  5  1  0     0  0
 20 24  1  0     0  0
 11 12  1  0     0  0
 20 25  1  0     0  0
 14 13  1  0     0  0
 25 26  1  0     0  0
 26 28  1  0     0  0
  5  6  1  0     0  0
 24 27  1  0     0  0
 10 13  1  1     0  0
 27 28  1  0     0  0
 14 15  1  0     0  0
 28 29  1  0     0  0
 29 30  1  0     0  0
  5  7  1  0     0  0
 30 31  2  0     0  0
  1  2  1  0     0  0
 31 32  1  0     0  0
  7  8  1  0     0  0
 32 33  2  0     0  0
  1  6  1  0     0  0
 33 34  1  0     0  0
  7  9  2  0     0  0
 34 35  2  0     0  0
 35 30  1  0     0  0
M  END