
          11280714502D 1   1.00000     0.00000     0

 13 13  0     0  0            999 V2000
    2.4292   -4.1875    0.0000 C   0  0  0  0  0  0           0  0  0
    2.4292   -5.0167    0.0000 C   0  0  0  0  0  0           0  0  0
    3.1417   -3.7750    0.0000 C   0  0  0  0  0  0           0  0  0
    3.1417   -5.4292    0.0000 C   0  0  0  0  0  0           0  0  0
    3.8542   -4.1875    0.0000 C   0  0  0  0  0  0           0  0  0
    3.8542   -5.0167    0.0000 C   0  0  0  0  0  0           0  0  0
    1.7167   -3.7792    0.0000 O   0  0  0  0  0  0           0  0  0
    1.7125   -5.4292    0.0000 O   0  0  0  0  0  0           0  0  0
    6.0000   -3.7667    0.0000 N   0  0  0  0  0  0           0  0  0
    5.2875   -4.1792    0.0000 C   0  0  0  0  0  0           0  0  0
    4.5667   -3.7667    0.0000 C   0  0  0  0  0  0           0  0  0
    1.7167   -2.9542    0.0000 C   0  0  0  0  0  0           0  0  0
    1.0000   -5.0167    0.0000 C   0  0  0  0  0  0           0  0  0
  2  1  2  0     0  0
  3  1  1  0     0  0
  4  2  1  0     0  0
  5  3  2  0     0  0
  6  5  1  0     0  0
  7  1  1  0     0  0
  8  2  1  0     0  0
  9 10  1  0     0  0
 10 11  1  0     0  0
 11  5  1  0     0  0
 12  7  1  0     0  0
 13  8  1  0     0  0
  4  6  2  0     0  0
M  END