
          11280715342D 1   1.00000     0.00000     0

 32 34  0     0  0            999 V2000
    2.1292   -6.0917    0.0000 S   0  0  3  0  0  0           0  0  0
    5.4250   -6.0792    0.0000 C   0  0  0  0  0  0           0  0  0
    8.4167   -8.1375    0.0000 C   0  0  3  0  0  0           0  0  0
    9.2375   -8.0167    0.0000 C   0  0  0  0  0  0           0  0  0
    7.9042   -7.4917    0.0000 N   0  0  0  0  0  0           0  0  0
    2.9542   -6.0917    0.0000 C   0  0  0  0  0  0           0  0  0
    7.0792   -7.4917    0.0000 C   0  0  0  0  0  0           0  0  0
    5.8417   -6.7917    0.0000 N   0  0  0  0  0  0           0  0  0
    2.1292   -6.9167    0.0000 O   0  0  0  0  0  0           0  0  0
    2.1292   -5.2667    0.0000 O   0  0  0  0  0  0           0  0  0
    4.6000   -6.0792    0.0000 C   0  0  0  0  0  0           0  0  0
    1.3042   -6.0875    0.0000 N   0  0  0  0  0  0           0  0  0
    8.1167   -8.9042    0.0000 C   0  0  0  0  0  0           0  0  0
    8.8250  -10.9542    0.0000 C   0  0  0  0  0  0           0  0  0
    8.6250   -9.5542    0.0000 C   0  0  0  0  0  0           0  0  0
    8.3167  -10.3125    0.0000 C   0  0  0  0  0  0           0  0  0
    5.8292   -5.3625    0.0000 O   0  0  0  0  0  0           0  0  0
    9.5417   -7.2542    0.0000 O   0  0  0  0  0  0           0  0  0
    6.6750   -8.2125    0.0000 O   0  0  0  0  0  0           0  0  0
    3.3542   -5.3792    0.0000 C   0  0  0  0  0  0           0  0  0
    3.3667   -6.8042    0.0000 C   0  0  0  0  0  0           0  0  0
    4.1917   -6.8000    0.0000 C   0  0  0  0  0  0           0  0  0
    4.1792   -5.3667    0.0000 C   0  0  0  0  0  0           0  0  0
    6.6667   -6.7792    0.0000 C   0  0  0  0  0  0           0  0  0
    9.6417  -10.8417    0.0000 C   0  0  0  0  0  0           0  0  0
    9.9500  -10.0750    0.0000 C   0  0  0  0  0  0           0  0  0
    9.7500   -8.6667    0.0000 O   0  0  0  0  0  0           0  0  0
    9.4417   -9.4292    0.0000 C   0  0  0  0  0  0           0  0  0
    8.5167  -11.7167    0.0000 C   0  0  0  0  0  0           0  0  0
   10.1417  -11.4917    0.0000 C   0  0  0  0  0  0           0  0  0
    9.0167  -12.3667    0.0000 C   0  0  0  0  0  0           0  0  0
    9.8417  -12.2542    0.0000 C   0  0  0  0  0  0           0  0  0
  2 11  1  0     0  0
  3  5  1  0     0  0
  4  3  1  0     0  0
  5  7  1  0     0  0
  6  1  1  0     0  0
  7 24  1  0     0  0
  8  2  1  0     0  0
  9  1  2  0     0  0
 10  1  2  0     0  0
 11 22  2  0     0  0
 12  1  1  0     0  0
 13  3  1  0     0  0
 14 16  2  0     0  0
 15 13  1  0     0  0
 16 15  1  0     0  0
 17  2  2  0     0  0
 18  4  2  0     0  0
 19  7  2  0     0  0
 20  6  1  0     0  0
 21  6  2  0     0  0
 22 21  1  0     0  0
 23 20  2  0     0  0
 24  8  1  0     0  0
 25 26  2  0     0  0
 26 28  1  0     0  0
 27  4  1  0     0  0
 28 15  2  0     0  0
 29 14  1  0     0  0
 30 25  1  0     0  0
 31 29  2  0     0  0
 32 30  2  0     0  0
 23 11  1  0     0  0
 25 14  1  0     0  0
 31 32  1  0     0  0
M  END