
  SciTegic06271217572D

 29 31  0  0  0  0            999 V2000
   -2.6362   -1.9992    0.0000 S   0  0
   -3.0623   -2.7056    0.0000 O   0  0
   -2.2374   -2.7214    0.0000 O   0  0
   -3.3426   -1.5731    0.0000 N   0  0
   -1.9181   -0.7583    0.0000 C   0  0
   -1.9193   -1.5857    0.0000 C   0  0
   -1.2044   -1.9985    0.0000 C   0  0
   -0.4880   -1.5852    0.0000 C   0  0
   -0.4909   -0.7547    0.0000 C   0  0
   -1.2062   -0.3455    0.0000 C   0  0
    0.2221   -0.3395    0.0000 C   0  0
    0.9381   -0.7493    0.0000 C   0  0
    0.2189    0.4855    0.0000 O   0  0
    1.6510   -0.3341    0.0000 S   0  0
    2.3670   -0.7439    0.0000 C   0  0
    2.3670   -1.5678    0.0000 N   0  0
    3.0822   -1.9775    0.0000 C   0  0
    3.7961   -1.5622    0.0000 C   0  0
    3.7903   -0.7330    0.0000 C   0  0
    3.0745   -0.3270    0.0000 N   0  0
    4.5126   -1.9711    0.0000 C   0  0
    4.5168   -2.7961    0.0000 C   0  0
    3.8023   -3.2101    0.0000 C   0  0
    3.8061   -4.0343    0.0000 C   0  0
    4.5232   -4.4440    0.0000 C   0  0
    5.2379   -4.0234    0.0000 C   0  0
    5.2306   -3.2006    0.0000 C   0  0
    3.0849   -2.8025    0.0000 O   0  0
    4.5017   -0.3153    0.0000 C   0  0
 14 15  1  0
  2  1  2  0
 15 16  1  0
  8  9  1  0
 16 17  1  0
  1  3  2  0
 17 18  1  0
  9 10  2  0
 18 19  2  0
 10  5  1  0
 19 20  1  0
 20 15  2  0
  6  1  1  0
  5  6  2  0
  9 11  1  0
 18 21  1  0
 21 22  1  0
 11 12  1  0
 22 23  2  0
  6  7  1  0
 23 24  1  0
 11 13  2  0
 24 25  2  0
  1  4  1  0
 25 26  1  0
 12 14  1  0
 26 27  2  0
 27 22  1  0
 17 28  2  0
  7  8  2  0
 19 29  1  0
M  END