
  SciTegic12151613582D

 32 34  0  0  0  0            999 V2000
    2.5973   -1.5031    0.0000 C   0  0
    1.2990   -0.7500    0.0000 C   0  0
    1.2990    0.7500    0.0000 C   0  0
    0.0000    1.5000    0.0000 C   0  0
   -1.2990    0.7500    0.0000 C   0  0
   -1.2990   -0.7500    0.0000 C   0  0
    0.0000   -1.5000    0.0000 C   0  0
    2.5956   -2.7031    0.0000 O   0  0
    3.6375   -0.9049    0.0000 O   0  0
   -2.5972   -1.5031    0.0000 C   0  0
   -2.5951   -3.0039    0.0000 O   0  0
   -3.8933   -3.7570    0.0000 C   0  0
   -3.8934   -5.2570    0.0000 C   0  0
   -5.1924   -6.0071    0.0000 C   0  0
   -6.4914   -5.2571    0.0000 C   0  0
   -6.4915   -3.7571    0.0000 C   0  0
   -5.1925   -3.0071    0.0000 O   0  0
   -0.0031    3.0008    0.0000 C   0  0
   -1.3039    3.7494    0.0000 N   0  0
    1.0351    3.6026    0.0000 O   0  0
   -1.3070    5.2502    0.0000 C   0  0
   -2.6061    6.0003    0.0000 C   0  0
   -2.6061    7.5003    0.0000 C   0  0
   -1.3071    8.2503    0.0000 C   0  0
   -0.0080    7.5003    0.0000 C   0  0
   -0.0080    6.0003    0.0000 C   0  0
   -3.9074    5.2525    0.0000 O   0  0
   -5.2061    6.0048    0.0000 C   0  0
   -6.2465    5.4070    0.0000 C   0  0
    1.2933    8.2481    0.0000 C   0  0
    2.3316    7.6467    0.0000 O   0  0
    1.2953    9.4481    0.0000 C   0  0
  1  2  1  0
  2  3  1  0
  3  4  2  0
  4  5  1  0
  5  6  2  0
  6  7  1  0
  2  7  2  0
  1  8  2  0
  1  9  1  0
 12 13  1  0
 13 14  1  0
 14 15  1  0
 15 16  1  0
 16 17  1  0
 12 17  1  0
 11 12  1  0
 10 11  1  0
  6 10  1  0
 18 19  1  0
 18 20  2  0
 21 22  1  0
 22 23  2  0
 23 24  1  0
 24 25  2  0
 25 26  1  0
 21 26  2  0
 28 29  1  0
 27 28  1  0
 22 27  1  0
 30 31  2  0
 30 32  1  0
 25 30  1  0
 19 21  1  0
  4 18  1  0
M  END