
          11280715502D 1   1.00000     0.00000     0

 45 50  0     1  0            999 V2000
    6.3810   -7.2637    0.0000 C   0  0  0  0  0  0           0  0  0
    6.8008   -7.9767    0.0000 C   0  0  0  0  0  0           0  0  0
    7.6262   -7.9687    0.0000 C   0  0  0  0  0  0           0  0  0
    8.0329   -7.2485    0.0000 C   0  0  0  0  0  0           0  0  0
    7.6081   -6.5348    0.0000 C   0  0  0  0  0  0           0  0  0
    6.7840   -6.5463    0.0000 C   0  0  0  0  0  0           0  0  0
    8.0108   -5.8148    0.0000 C   0  0  0  0  0  0           0  0  0
    8.8357   -5.8035    0.0000 N   0  0  3  0  0  0           0  0  0
    7.5886   -5.1060    0.0000 O   0  0  0  0  0  0           0  0  0
    9.2566   -6.5151    0.0000 C   0  0  1  0  0  0           0  0  0
   10.0779   -6.5059    0.0000 C   0  0  0  0  0  0           0  0  0
   10.4845   -5.7876    0.0000 N   0  0  3  0  0  0           0  0  0
   10.0635   -5.0770    0.0000 C   0  0  0  0  0  0           0  0  0
    9.2359   -5.0846    0.0000 C   0  0  0  0  0  0           0  0  0
    8.8519   -7.2340    0.0000 C   0  0  0  0  0  0           0  0  0
    9.2638   -7.9469    0.0000 C   0  0  0  0  0  0           0  0  0
    8.9334   -8.7009    0.0000 C   0  0  0  0  0  0           0  0  0
    9.5454   -9.2516    0.0000 N   0  0  0  0  0  0           0  0  0
   10.0867   -8.0345    0.0000 C   0  0  0  0  0  0           0  0  0
   10.2573   -8.8385    0.0000 C   0  0  0  0  0  0           0  0  0
   11.0375   -9.0913    0.0000 C   0  0  0  0  0  0           0  0  0
   11.6477   -8.5410    0.0000 C   0  0  0  0  0  0           0  0  0
   11.4726   -7.7347    0.0000 C   0  0  0  0  0  0           0  0  0
   10.6926   -7.4857    0.0000 C   0  0  0  0  0  0           0  0  0
    8.0374   -8.6808    0.0000 C   0  0  3  0  0  0           0  0  0
    8.7478   -8.2613    0.0000 F   0  0  0  0  0  0           0  0  0
    8.4534   -9.3933    0.0000 F   0  0  0  0  0  0           0  0  0
    7.3250   -9.0968    0.0000 F   0  0  0  0  0  0           0  0  0
    5.5561   -7.2721    0.0000 C   0  0  3  0  0  0           0  0  0
    5.5590   -8.0977    0.0000 F   0  0  0  0  0  0           0  0  0
    5.5426   -6.4476    0.0000 F   0  0  0  0  0  0           0  0  0
    4.7286   -7.2816    0.0000 F   0  0  0  0  0  0           0  0  0
   11.3095   -5.7795    0.0000 C   0  0  0  0  0  0           0  0  0
   11.7149   -5.0610    0.0000 C   0  0  0  0  0  0           0  0  0
   12.5315   -4.9641    0.0000 C   0  0  0  0  0  0           0  0  0
   12.6950   -4.1554    0.0000 C   0  0  0  0  0  0           0  0  0
   11.9764   -3.7500    0.0000 O   0  0  0  0  0  0           0  0  0
   11.3690   -4.3081    0.0000 N   0  0  0  0  0  0           0  0  0
   13.4453   -3.8124    0.0000 C   0  0  0  0  0  0           0  0  0
   14.1175   -4.2907    0.0000 N   0  0  3  0  0  0           0  0  0
   14.0368   -5.1092    0.0000 C   0  0  0  0  0  0           0  0  0
   14.7049   -5.5870    0.0000 C   0  0  0  0  0  0           0  0  0
   15.4573   -5.2477    0.0000 O   0  0  0  0  0  0           0  0  0
   15.5374   -4.4257    0.0000 C   0  0  0  0  0  0           0  0  0
   14.8652   -3.9429    0.0000 C   0  0  0  0  0  0           0  0  0
 25 27  1  0     0  0
 11 12  1  0     0  0
 25 28  1  0     0  0
 12 13  1  0     0  0
  1 29  1  0     0  0
 13 14  1  0     0  0
 29 30  1  0     0  0
  5  7  1  0     0  0
 29 31  1  0     0  0
 10 15  1  1     0  0
 29 32  1  0     0  0
  3  4  2  0     0  0
 12 33  1  0     0  0
 15 16  1  0     0  0
 33 34  1  0     0  0
 16 17  2  0     0  0
  7  8  1  0     0  0
 17 18  1  0     0  0
 18 20  1  0     0  0
 19 16  1  0     0  0
  7  9  2  0     0  0
  8 10  1  0     0  0
 19 20  2  0     0  0
  4  5  1  0     0  0
 20 21  1  0     0  0
  2  3  1  0     0  0
 21 22  2  0     0  0
 34 35  1  0     0  0
  5  6  2  0     0  0
 22 23  1  0     0  0
  6  1  1  0     0  0
 35 36  2  0     0  0
 36 37  1  0     0  0
 37 38  1  0     0  0
 38 34  2  0     0  0
 23 24  2  0     0  0
 36 39  1  0     0  0
 24 19  1  0     0  0
 39 40  1  0     0  0
 40 41  1  0     0  0
  1  2  2  0     0  0
  3 25  1  0     0  0
  8 14  1  0     0  0
 25 26  1  0     0  0
 10 11  1  0     0  0
 40 45  1  0     0  0
 41 42  1  0     0  0
 42 43  1  0     0  0
 43 44  1  0     0  0
 44 45  1  0     0  0
M  END