
          11280715242D 1   1.00000     0.00000     0

 10 10  0     0  0            999 V2000
    3.8792   -1.0375    0.0000 C   0  0  0  0  0  0           0  0  0
    3.1667   -1.4542    0.0000 C   0  0  0  0  0  0           0  0  0
    3.1750   -2.2792    0.0000 C   0  0  0  0  0  0           0  0  0
    3.8792   -0.2125    0.0000 O   0  0  0  0  0  0           0  0  0
    4.6000   -1.4417    0.0000 N   0  0  0  0  0  0           0  0  0
    2.4667   -2.6917    0.0000 C   0  0  0  0  0  0           0  0  0
    2.4750   -3.5167    0.0000 Br  0  0  0  0  0  0           0  0  0
    2.4542   -1.0417    0.0000 C   0  0  0  0  0  0           0  0  0
    1.7417   -1.4625    0.0000 C   0  0  0  0  0  0           0  0  0
    1.7542   -2.2875    0.0000 C   0  0  0  0  0  0           0  0  0
  2  1  1  0     0  0
  3  2  2  0     0  0
  4  1  2  0     0  0
  5  1  1  0     0  0
  6  3  1  0     0  0
  7  6  1  0     0  0
  8  2  1  0     0  0
  9  8  2  0     0  0
 10  9  1  0     0  0
 10  6  2  0     0  0
M  END