
  SciTegic08011209522D

 25 27  0  0  0  0            999 V2000
   -1.9467    0.3786    0.0000 O   0  0
   -2.3543   -0.3369    0.0000 S   0  0
   -1.5309   -0.3322    0.0000 O   0  0
   -5.2134    2.1339    0.0000 C   0  0
   -5.2145    1.3080    0.0000 C   0  0
   -4.5010    0.8958    0.0000 C   0  0
   -4.5027    2.5460    0.0000 C   0  0
   -3.7886    2.1376    0.0000 C   0  0
   -3.7879    1.3080    0.0000 C   0  0
   -3.0701    0.8956    0.0000 C   0  0
   -2.3527    1.3118    0.0000 C   0  0
   -2.3575    2.1445    0.0000 C   0  0
   -3.0758    2.5531    0.0000 C   0  0
   -3.0802    3.3767    0.0000 O   0  0
   -1.6468    2.5606    0.0000 S   0  0
   -3.0684    0.0720    0.0000 N   0  0
   -2.3526   -1.1619    0.0000 C   0  0
   -0.9310    2.1531    0.0000 C   0  0
   -0.2202    2.5693    0.0000 C   0  0
    0.4955    2.1618    0.0000 O   0  0
   -0.2253    3.3928    0.0000 O   0  0
   -3.0166   -1.6483    0.0000 S   0  0
   -2.7600   -2.4324    0.0000 C   0  0
   -1.9350   -2.4307    0.0000 C   0  0
   -1.6818   -1.6455    0.0000 C   0  0
 12 13  2  0
 13  8  1  0
  8  7  2  0
 13 14  1  0
  7  4  1  0
 12 15  1  0
  2  1  2  0
 10 16  1  0
 16  2  1  0
  4  5  2  0
  2 17  1  0
  8  9  1  0
 15 18  1  0
  3  2  2  0
 18 19  1  0
  9 10  1  0
 19 20  1  0
  5  6  1  0
 19 21  2  0
 17 22  1  0
 10 11  2  0
  6  9  2  0
 11 12  1  0
 22 23  1  0
 23 24  2  0
 24 25  1  0
 25 17  2  0
M  END