
          11280714442D 1   1.00000     0.00000     0

 21 21  0     0  0            999 V2000
    2.7667   -4.7125    0.0000 C   0  0  0  0  0  0           0  0  0
    2.0667   -5.1542    0.0000 C   0  0  0  0  0  0           0  0  0
    3.4917   -5.0917    0.0000 O   0  0  0  0  0  0           0  0  0
    2.7292   -3.8917    0.0000 O   0  0  0  0  0  0           0  0  0
    1.3375   -4.7750    0.0000 C   0  0  0  0  0  0           0  0  0
    6.3542   -4.9625    0.0000 N   0  0  0  0  0  0           0  0  0
    4.9250   -5.0292    0.0000 C   0  0  3  0  0  0           0  0  0
    4.1917   -4.6500    0.0000 C   0  0  0  0  0  0           0  0  0
    5.6167   -4.5792    0.0000 C   0  0  0  0  0  0           0  0  0
    0.6417   -5.2250    0.0000 C   0  0  0  0  0  0           0  0  0
    4.9625   -5.8542    0.0000 O   0  0  0  0  0  0           0  0  0
   -0.0875   -4.8417    0.0000 O   0  0  0  0  0  0           0  0  0
    2.1125   -5.9792    0.0000 C   0  0  0  0  0  0           0  0  0
    1.4167   -6.4250    0.0000 C   0  0  0  0  0  0           0  0  0
    7.0500   -4.5167    0.0000 C   0  0  3  0  0  0           0  0  0
    0.6792   -6.0417    0.0000 C   0  0  0  0  0  0           0  0  0
   -0.1250   -4.0167    0.0000 C   0  0  0  0  0  0           0  0  0
   -0.8583   -3.6417    0.0000 C   0  0  0  0  0  0           0  0  0
    7.0125   -3.6917    0.0000 C   0  0  0  0  0  0           0  0  0
    7.7792   -4.9000    0.0000 C   0  0  0  0  0  0           0  0  0
   -0.8958   -2.8167    0.0000 C   0  0  0  0  0  0           0  0  0
  2  1  1  0     0  0
  3  1  1  0     0  0
  4  1  2  0     0  0
  5  2  2  0     0  0
  6  9  1  0     0  0
  7  8  1  0     0  0
  8  3  1  0     0  0
  9  7  1  0     0  0
 10  5  1  0     0  0
 11  7  1  0     0  0
 12 10  1  0     0  0
 13  2  1  0     0  0
 14 13  2  0     0  0
 15  6  1  0     0  0
 16 14  1  0     0  0
 17 12  1  0     0  0
 18 17  1  0     0  0
 19 15  1  0     0  0
 20 15  1  0     0  0
 21 18  1  0     0  0
 16 10  2  0     0  0
M  END