
          11280715312D 1   1.00000     0.00000     0

 28 32  0     0  0            999 V2000
    5.9417   -3.3875    0.0000 N   0  0  3  0  0  0           0  0  0
    5.9417   -2.5625    0.0000 C   0  0  0  0  0  0           0  0  0
    8.3917   -5.5667    0.0000 N   0  0  3  0  0  0           0  0  0
    6.6167   -3.8667    0.0000 C   0  0  0  0  0  0           0  0  0
    7.7167   -5.0917    0.0000 C   0  0  0  0  0  0           0  0  0
    7.9667   -4.3042    0.0000 C   0  0  0  0  0  0           0  0  0
    6.3667   -4.6542    0.0000 C   0  0  0  0  0  0           0  0  0
    7.4167   -3.7000    0.0000 C   0  0  0  0  0  0           0  0  0
    6.9167   -5.2625    0.0000 C   0  0  0  0  0  0           0  0  0
    9.0542   -5.0792    0.0000 C   0  0  0  0  0  0           0  0  0
    5.2292   -2.1542    0.0000 N   0  0  0  0  0  0           0  0  0
    8.7917   -4.3000    0.0000 C   0  0  0  0  0  0           0  0  0
    5.2875   -3.8750    0.0000 C   0  0  0  0  0  0           0  0  0
    8.3917   -6.3917    0.0000 C   0  0  0  0  0  0           0  0  0
    6.6542   -2.1500    0.0000 O   0  0  0  0  0  0           0  0  0
    5.5417   -4.6625    0.0000 C   0  0  0  0  0  0           0  0  0
    3.8000   -3.8125    0.0000 N   0  0  0  0  0  0           0  0  0
    4.5167   -2.5667    0.0000 C   0  0  0  0  0  0           0  0  0
    7.6875   -6.8125    0.0000 C   0  0  0  0  0  0           0  0  0
    4.5167   -3.4000    0.0000 C   0  0  0  0  0  0           0  0  0
    3.0875   -3.4000    0.0000 C   0  0  0  0  0  0           0  0  0
    3.8000   -2.1542    0.0000 C   0  0  0  0  0  0           0  0  0
    6.9667   -6.4042    0.0000 C   0  0  0  0  0  0           0  0  0
    7.6917   -7.6292    0.0000 C   0  0  0  0  0  0           0  0  0
    3.0875   -2.5750    0.0000 C   0  0  0  0  0  0           0  0  0
    6.9875   -8.0542    0.0000 C   0  0  0  0  0  0           0  0  0
    6.2625   -6.8167    0.0000 C   0  0  0  0  0  0           0  0  0
    6.2667   -7.6417    0.0000 C   0  0  0  0  0  0           0  0  0
  2  1  1  0     0  0
  3  5  1  0     0  0
  4  1  1  0     0  0
  5  6  1  0     0  0
  6  8  2  0     0  0
  7  4  2  0     0  0
  8  4  1  0     0  0
  9  7  1  0     0  0
 10 12  2  0     0  0
 11  2  1  0     0  0
 12  6  1  0     0  0
 13  1  1  0     0  0
 14  3  1  0     0  0
 15  2  2  0     0  0
 16 13  1  0     0  0
 17 20  1  0     0  0
 18 11  1  0     0  0
 19 14  1  0     0  0
 20 18  2  0     0  0
 21 25  1  0     0  0
 22 18  1  0     0  0
 23 19  2  0     0  0
 24 19  1  0     0  0
 25 22  2  0     0  0
 26 24  2  0     0  0
 27 23  1  0     0  0
 28 26  1  0     0  0
 16  7  1  0     0  0
  9  5  2  0     0  0
  3 10  1  0     0  0
 21 17  2  0     0  0
 27 28  2  0     0  0
M  END