
          01230816042D 1   1.00000     0.00000     0

 53 59  0     1  0            999 V2000
   -4.9139  -16.3458    0.0000 C   0  0  0  0  0  0           0  0  0
   -4.9151  -17.1732    0.0000 C   0  0  0  0  0  0           0  0  0
   -4.2003  -17.5860    0.0000 C   0  0  0  0  0  0           0  0  0
   -4.2021  -15.9330    0.0000 C   0  0  0  0  0  0           0  0  0
   -3.4867  -16.3422    0.0000 C   0  0  0  0  0  0           0  0  0
   -3.4833  -17.1752    0.0000 C   0  0  0  0  0  0           0  0  0
   -2.7641  -17.5865    0.0000 C   0  0  0  0  0  0           0  0  0
   -2.0437  -17.1693    0.0000 C   0  0  0  0  0  0           0  0  0
   -3.9833  -18.3375    0.0000 N   0  0  0  0  0  0           0  0  0
   -2.9833  -18.3792    0.0000 C   0  0  0  0  0  0           0  0  0
   -2.7709  -15.9204    0.0000 C   0  0  0  0  0  0           0  0  0
   -2.0452  -16.3357    0.0000 C   0  0  2  0  0  0           0  0  0
   -1.3267  -15.9172    0.0000 N   0  0  3  0  0  0           0  0  0
   -1.3275  -15.0817    0.0000 C   0  0  0  0  0  0           0  0  0
   -2.0533  -14.6663    0.0000 C   0  0  1  0  0  0           0  0  0
   -2.7781  -15.0866    0.0000 C   0  0  0  0  0  0           0  0  0
   -0.6112  -16.3280    0.0000 C   0  0  0  0  0  0           0  0  0
   -2.0556  -13.8413    0.0000 C   0  0  0  0  0  0           0  0  0
   -1.3422  -13.4268    0.0000 N   0  0  0  0  0  0           0  0  0
   -2.7712  -13.4308    0.0000 O   0  0  0  0  0  0           0  0  0
   -1.3445  -12.6019    0.0000 C   0  0  2  0  0  0           0  0  0
   -0.6312  -12.1874    0.0000 C   0  0  0  0  0  0           0  0  0
   -2.0602  -12.1913    0.0000 C   0  0  0  0  0  0           0  0  0
   -2.0625  -11.3664    0.0000 C   0  0  0  0  0  0           0  0  0
    0.0844  -12.5979    0.0000 N   0  0  0  0  0  0           0  0  0
   -0.6335  -11.3624    0.0000 O   0  0  0  0  0  0           0  0  0
    0.7977  -12.1834    0.0000 C   0  0  2  0  0  0           0  0  0
    1.3883  -12.6564    0.0000 C   0  0  0  0  0  0           0  0  0
    0.7954  -11.3584    0.0000 C   0  0  3  0  0  0           0  0  0
    1.0750  -13.4042    0.0000 O   0  0  0  0  0  0           0  0  0
    2.1905  -12.4637    0.0000 N   0  0  3  0  0  0           0  0  0
   -1.3333  -16.7458    0.0000 H   0  0  0  0  0  0           0  0  0
    1.5087  -10.9439    0.0000 C   0  0  0  0  0  0           0  0  0
    2.8132  -12.9997    0.0000 C   0  0  1  0  0  0           0  0  0
    3.5166  -12.5686    0.0000 C   0  0  0  0  0  0           0  0  0
    2.5015  -11.7018    0.0000 C   0  0  0  0  0  0           0  0  0
    3.3223  -11.7678    0.0000 C   0  0  0  0  0  0           0  0  0
    3.7879  -11.0909    0.0000 C   0  0  0  0  0  0           0  0  0
    3.4339  -10.3477    0.0000 C   0  0  0  0  0  0           0  0  0
    2.6096  -10.2855    0.0000 C   0  0  0  0  0  0           0  0  0
    2.1477  -10.9633    0.0000 C   0  0  0  0  0  0           0  0  0
    2.7469  -13.8221    0.0000 C   0  0  0  0  0  0           0  0  0
    2.0016  -14.1758    0.0000 O   0  0  0  0  0  0           0  0  0
    3.4259  -14.2906    0.0000 N   0  0  0  0  0  0           0  0  0
    0.0798  -10.9479    0.0000 C   0  0  0  0  0  0           0  0  0
   -1.3501  -10.9557    0.0000 C   0  0  0  0  0  0           0  0  0
   -1.3521  -10.1314    0.0000 C   0  0  0  0  0  0           0  0  0
   -2.0683   -9.7201    0.0000 C   0  0  0  0  0  0           0  0  0
   -2.7839  -10.1391    0.0000 C   0  0  0  0  0  0           0  0  0
   -2.7785  -10.9619    0.0000 C   0  0  0  0  0  0           0  0  0
   -2.0730   -8.8900    0.0000 N   0  3  0  0  0  0           0  0  0
   -2.7892   -8.4804    0.0000 O   0  0  0  0  0  0           0  0  0
   -1.3602   -8.4746    0.0000 O   0  5  0  0  0  0           0  0  0
 22 25  1  0     0  0
  5  6  1  0     0  0
 22 26  2  0     0  0
 25 27  1  0     0  0
  2  3  1  0     0  0
 27 28  1  0     0  0
  3  6  2  0     0  0
 27 29  1  1     0  0
  1  2  2  0     0  0
 28 30  2  0     0  0
  5 11  1  0     0  0
 28 31  1  0     0  0
 11 16  2  0     0  0
 12 32  1  1     0  0
 12 13  1  0     0  0
 29 33  1  0     0  0
 31 34  1  0     0  0
 13 14  1  0     0  0
 14 15  1  0     0  0
 34 35  1  0     0  0
 35 37  1  0     0  0
 36 31  1  0     0  0
 15 16  1  0     0  0
  6  7  1  0     0  0
 36 37  2  0     0  0
 13 17  1  0     0  0
 37 38  1  0     0  0
  7  8  1  0     0  0
 38 39  2  0     0  0
 15 18  1  1     0  0
 39 40  1  0     0  0
  8 12  1  0     0  0
 40 41  2  0     0  0
 41 36  1  0     0  0
 18 19  1  0     0  0
 34 42  1  1     0  0
  5  4  2  0     0  0
 42 43  2  0     0  0
 18 20  2  0     0  0
 42 44  1  0     0  0
  3  9  1  0     0  0
 29 45  1  0     0  0
 19 21  1  0     0  0
 24 46  2  0     0  0
  4  1  1  0     0  0
 46 47  1  0     0  0
 21 22  1  0     0  0
 47 48  2  0     0  0
  7 10  2  0     0  0
 48 49  1  0     0  0
 21 23  1  1     0  0
 49 50  2  0     0  0
 50 24  1  0     0  0
  9 10  1  0     0  0
 23 24  1  0     0  0
 11 12  1  0     0  0
 51 52  2  0     0  0
 51 53  1  0     0  0
 48 51  1  0     0  0
M  CHG  2  51   1  53  -1
M  END