
  SciTegic09081514172D

 73 72  0  0  0  0            999 V2000
   -2.1229   -2.7523    0.0000 O   0  5
   -2.5362   -3.8788    0.0000 S   0  0
   -3.7186   -4.0838    0.0000 O   0  0
   -3.3050   -2.9575    0.0000 O   0  0
   -1.5418   -8.7168    0.0000 O   0  0
   -1.1281   -7.5904    0.0000 S   0  0
   -1.8971   -6.6691    0.0000 O   0  0
    0.3505   -7.3331    0.0000 O   0  0
   -2.3105   -7.7955    0.0000 O   0  5
    4.7311    2.3207    0.0000 O   0  0
    6.0329   -1.0664    0.0000 O   0  0
    4.9840   -0.4834    0.0000 S   0  0
    4.9649    0.7164    0.0000 O   0  5
    3.6962   -1.2541    0.0000 O   0  0
    6.0134    0.1333    0.0000 O   0  0
   -1.5741   -5.0307    0.0000 O   0  0
    4.3434    1.1850    0.0000 C   0  0
   -0.0518   -1.9617    0.0000 O   0  0
    2.9875   -6.4317    0.0000 O   0  0
    1.8963   -3.1061    0.0000 O   0  0
    0.4189   -3.3653    0.0000 C   0  0  2  0  0  0
   -0.0953   -4.7744    0.0000 C   0  0  1  0  0  0
    0.8679   -5.9243    0.0000 C   0  0  2  0  0  0
    2.3453   -5.6651    0.0000 C   0  0  1  0  0  0
    2.8596   -4.2560    0.0000 C   0  0  1  0  0  0
    4.3383   -3.9996    0.0000 C   0  0
   -0.5701    2.8705    0.0000 O   0  0
   -1.5466    0.0326    0.0000 N   0  0
    1.8857    2.0249    0.0000 O   0  0
    0.4135    1.7369    0.0000 C   0  0  1  0  0  0
   -0.0732    0.3181    0.0000 C   0  0  1  0  0  0
    0.9134   -0.8124    0.0000 C   0  0  2  0  0  0
    2.3844   -0.5249    0.0000 C   0  0  2  0  0  0
    2.8711    0.8939    0.0000 C   0  0  1  0  0  0
   -2.0619   14.4994    0.0000 C   0  0
   -2.5486   13.0805    0.0000 C   0  0
   -4.0208   12.7927    0.0000 C   0  0
   -5.0062   13.9236    0.0000 C   0  0
   -4.5194   15.3424    0.0000 C   0  0
   -3.0473   15.6303    0.0000 C   0  0
   -1.5650   11.9469    0.0000 N   0  0
   -6.4797   13.6386    0.0000 N   0  0
   -7.4640   14.7715    0.0000 C   0  0
   -8.9375   14.4865    0.0000 C   0  0
   -7.0726   15.9059    0.0000 O   0  0
   -9.9218   15.6195    0.0000 C   0  0
  -11.3953   15.3345    0.0000 C   0  0
  -12.3796   16.4674    0.0000 C   0  0
  -13.8531   16.1824    0.0000 C   0  0
  -14.9299   17.2083    0.0000 S   0  0
  -16.2410   16.4796    0.0000 S   0  0
  -15.9531   15.0075    0.0000 C   0  0
  -14.4641   14.8264    0.0000 C   0  0
   -2.0540   10.5280    0.0000 C   0  0
   -2.2428    5.1947    0.0000 O   0  0
   -1.0647    5.4230    0.0000 C   0  0  1  0  0  0
   -0.5757    6.8419    0.0000 C   0  0  2  0  0  0
   -1.5593    7.9755    0.0000 C   0  0  1  0  0  0
   -1.0703    9.3944    0.0000 C   0  0  1  0  0  0
    0.1077    9.6227    0.0000 O   0  0
   -2.7374    7.7472    0.0000 O   0  0
    0.6024    7.0702    0.0000 O   0  0
   -0.0811    4.2894    0.0000 C   0  0
   -0.5615   -3.5622    0.0000 H   0  0
    4.6837   -3.0612    0.0000 O   0  0
    4.9787   -4.7678    0.0000 O   0  5
   -2.5312    1.1652    0.0000 C   0  0
   -2.2054    2.1107    0.0000 C   0  0
   -3.5130    0.9750    0.0000 O   0  0
   20.1630    8.4286    0.0000 Na  0  3
   17.6630    8.4286    0.0000 Na  0  3
   15.1630    8.4286    0.0000 Na  0  3
   12.6630    8.4286    0.0000 Na  0  3
  2  1  1  0
  3  2  2  0
  2  4  2  0
  6  5  2  0
  7  6  2  0
  8  6  1  0
  6  9  1  0
 12 11  2  0
 13 12  1  0
 14 12  1  0
 12 15  2  0
 17 10  1  0
 25 20  1  0
 20 21  1  0
 21 22  1  0
 22 23  1  0
 23 24  1  0
 24 25  1  0
 25 26  1  6
 21 18  1  0
 22 16  1  1
 23  8  1  6
 24 19  1  1
 34 29  1  0
 29 30  1  0
 30 31  1  0
 31 32  1  0
 32 33  1  0
 33 34  1  0
 34 17  1  6
 30 27  1  1
 31 28  1  1
 32 18  1  6
 33 14  1  6
 35 36  2  0
 36 37  1  0
 37 38  2  0
 38 39  1  0
 39 40  2  0
 40 35  1  0
 36 41  1  0
 38 42  1  0
 42 43  1  0
 43 44  1  0
 43 45  2  0
 44 46  1  0
 46 47  1  0
 47 48  1  0
 48 49  1  0
 49 50  1  0
 50 51  1  0
 51 52  1  0
 52 53  1  0
 53 49  1  0
 41 54  1  0
 54 59  1  0
 56 55  1  1
 56 57  1  0
 57 58  1  0
 58 59  1  0
 59 60  1  6
 58 61  1  6
 57 62  1  6
 56 63  1  0
 63 27  1  0
 21 64  1  1
 26 65  2  0
 26 66  1  0
 28 67  1  0
 67 68  1  0
 67 69  2  0
 16  2  1  0
M  CHG  8   1  -1   9  -1  13  -1  66  -1  70   1  71   1  72   1  73   1
M  END