
  SciTegic01161211262D

 34 37  0  0  0  0            999 V2000
    4.6833   -4.3708    0.0000 N   0  0
    5.4750   -4.1333    0.0000 C   0  0
    4.7125   -3.0333    0.0000 N   0  3
    5.4917   -3.3042    0.0000 C   0  0
    4.4125   -5.1458    0.0000 C   0  0  1  0  0  0
    6.1792   -4.5625    0.0000 N   0  0
    4.2167   -3.6917    0.0000 C   0  0
    6.2167   -2.9042    0.0000 C   0  0
    6.9250   -3.3375    0.0000 N   0  0
    4.8792   -5.8292    0.0000 C   0  0  1  0  0  0
    6.9083   -4.1667    0.0000 C   0  0
    3.6208   -5.3875    0.0000 O   0  0
    5.1083    0.5375    0.0000 N   0  3
    1.5000   -6.8000    0.0000 P   0  0
    3.6000   -6.2125    0.0000 C   0  0  1  0  0  0
    4.3792   -6.4875    0.0000 C   0  0  1  0  0  0
    4.4708   -2.2458    0.0000 C   0  0
    5.3500   -0.2583    0.0000 C   0  0
    2.9208   -6.6833    0.0000 C   0  0
    5.6667    1.1417    0.0000 O   0  5
    2.1792   -6.3292    0.0000 O   0  0
    6.2333   -2.0792    0.0000 O   0  0
    0.9083   -7.3792    0.0000 O   0  0
    2.0292   -7.4333    0.0000 O   0  5
    4.3042    0.7208    0.0000 O   0  0
    0.9708   -6.1625    0.0000 O   0  0
    4.7917   -0.8583    0.0000 C   0  0
    5.0333   -1.6417    0.0000 C   0  0
    7.6125   -4.5917    0.0000 N   0  0
    5.7042   -5.8500    0.0000 O   0  0
    4.6167   -7.2750    0.0000 O   0  0
    6.1583   -0.4375    0.0000 C   0  0
    6.4000   -1.2292    0.0000 C   0  0
    5.8375   -1.8292    0.0000 C   0  0
  2  1  1  0
  3  7  2  0
  4  2  2  0
  5  1  1  1
  6  2  1  0
  7  1  1  0
  8  4  1  0
  9  8  1  0
 10  5  1  0
 11  6  2  0
 12  5  1  0
 13 18  1  0
 14 21  1  0
 15 12  1  0
 16 10  1  0
 17  3  1  0
 18 27  2  0
 15 19  1  1
 20 13  1  0
 21 19  1  0
 22  8  2  0
 23 14  1  0
 24 14  1  0
 25 13  2  0
 26 14  2  0
 27 28  1  0
 28 17  1  0
 29 11  1  0
 10 30  1  6
 16 31  1  6
 32 18  1  0
 33 34  1  0
 34 28  2  0
  3  4  1  0
 16 15  1  0
  9 11  1  0
 32 33  2  0
M  CHG  4   3   1  13   1  20  -1  24  -1
M  END