
          11280715102D 1   1.00000     0.00000     0

 23 25  0     0  0            999 V2000
    2.6292    1.8833    0.0000 N   0  0  0  0  0  0           0  0  0
    2.7917    1.0708    0.0000 C   0  0  0  0  0  0           0  0  0
    2.0792    0.6500    0.0000 C   0  0  0  0  0  0           0  0  0
    3.3417    2.2833    0.0000 O   0  0  0  0  0  0           0  0  0
    3.6167    0.9750    0.0000 C   0  0  0  0  0  0           0  0  0
    2.0792   -0.1792    0.0000 C   0  0  0  0  0  0           0  0  0
    3.9500    1.7333    0.0000 C   0  0  3  0  0  0           0  0  0
    2.7917   -0.5917    0.0000 O   0  0  0  0  0  0           0  0  0
    2.7917   -1.4167    0.0000 C   0  0  0  0  0  0           0  0  0
    2.0667   -1.8375    0.0000 C   0  0  0  0  0  0           0  0  0
    0.6417   -2.6625    0.0000 C   0  0  0  0  0  0           0  0  0
    1.3542   -1.4250    0.0000 C   0  0  0  0  0  0           0  0  0
    2.0667   -2.6625    0.0000 C   0  0  0  0  0  0           0  0  0
    1.3542   -3.0750    0.0000 C   0  0  0  0  0  0           0  0  0
    0.6417   -1.8375    0.0000 C   0  0  0  0  0  0           0  0  0
    5.3250    1.3083    0.0000 Cl  0  0  0  0  0  0           0  0  0
    1.3542    1.0625    0.0000 C   0  0  0  0  0  0           0  0  0
   -0.0833   -3.0792    0.0000 O   0  0  0  0  0  0           0  0  0
    4.7625    1.9208    0.0000 C   0  0  0  0  0  0           0  0  0
    1.3625   -0.5917    0.0000 C   0  0  0  0  0  0           0  0  0
   -0.7958   -2.6792    0.0000 C   0  0  0  0  0  0           0  0  0
    0.6417    0.6500    0.0000 C   0  0  0  0  0  0           0  0  0
    0.6417   -0.1792    0.0000 C   0  0  0  0  0  0           0  0  0
  2  1  2  0     0  0
  3  2  1  0     0  0
  4  1  1  0     0  0
  5  2  1  0     0  0
  6  3  1  0     0  0
  7  4  1  0     0  0
  8  6  1  0     0  0
  9  8  1  0     0  0
 10  9  1  0     0  0
 11 14  1  0     0  0
 12 10  2  0     0  0
 13 10  1  0     0  0
 14 13  2  0     0  0
 15 12  1  0     0  0
 16 19  1  0     0  0
 17  3  2  0     0  0
 18 11  1  0     0  0
 19  7  1  0     0  0
 20  6  2  0     0  0
 21 18  1  0     0  0
 22 17  1  0     0  0
 23 22  2  0     0  0
  7  5  1  0     0  0
 20 23  1  0     0  0
 11 15  2  0     0  0
M  END