
  SciTegic07291412072D

 55 59  0  0  0  0            999 V2000
   14.1761   -5.4745    0.0000 N   0  0
   14.8906   -7.5370    0.0000 N   0  0
   14.1761   -6.2995    0.0000 C   0  0
   14.8906   -6.7120    0.0000 C   0  0  2  0  0  0
   13.5087   -4.9896    0.0000 C   0  0  2  0  0  0
   14.1761   -7.9495    0.0000 C   0  0
   12.7241   -5.2445    0.0000 C   0  0
   14.1761   -8.7745    0.0000 C   0  0  1  0  0  0
   15.6051   -7.9495    0.0000 C   0  0
   14.8436   -4.9896    0.0000 C   0  0
   13.7636   -4.2050    0.0000 C   0  0
   15.6051   -6.2995    0.0000 C   0  0
   12.1110   -4.6925    0.0000 N   0  0
   14.5886   -4.2050    0.0000 C   0  0
    7.9178   -3.8012    0.0000 C   0  0
    8.4604   -8.7745    0.0000 C   0  0
   13.4617   -9.1870    0.0000 N   0  0
   14.8906   -9.1870    0.0000 C   0  0
   11.1548   -5.7544    0.0000 C   0  0
   16.3195   -7.5370    0.0000 C   0  0
   14.8906  -10.0120    0.0000 C   0  0
   16.3195   -6.7120    0.0000 C   0  0
   15.5580  -10.4969    0.0000 S   0  0
   13.4617   -6.7120    0.0000 O   0  0
   12.7472   -8.7745    0.0000 C   0  0
   11.3264   -4.9474    0.0000 C   0  0  2  0  0  0
    7.1332   -4.0562    0.0000 N   0  0
    7.7459   -9.1870    0.0000 N   0  0
   13.4617   -7.5370    0.0000 O   0  0
   12.5525   -6.0515    0.0000 O   0  0
   15.3031  -11.2816    0.0000 C   0  0
   14.2232  -10.4969    0.0000 C   0  0
   10.3702   -6.0094    0.0000 O   0  0
   14.4781  -11.2816    0.0000 C   0  0
   12.7472   -7.9495    0.0000 O   0  0
    9.1748   -9.1870    0.0000 N   0  0
    8.5309   -4.3533    0.0000 N   0  0
    8.0894   -2.9943    0.0000 N   0  0
    8.4604   -7.9495    0.0000 N   0  0
   11.7679   -6.3065    0.0000 O   0  0
   15.6505   -5.1611    0.0000 C   0  0
   15.1407   -3.5919    0.0000 C   0  0
   17.0340   -7.9495    0.0000 C   0  0
   17.0340   -6.2995    0.0000 C   0  0
   12.0327   -9.1870    0.0000 C   0  0
   10.7133   -4.3954    0.0000 C   0  0
    9.8893   -8.7745    0.0000 C   0  0
    9.3155   -4.0983    0.0000 C   0  0
    9.9286   -4.6504    0.0000 C   0  0
   11.3182   -8.7745    0.0000 C   0  0
   10.6038   -9.1870    0.0000 C   0  0
   16.2026   -4.5480    0.0000 C   0  0
   15.9476   -3.7634    0.0000 C   0  0
   17.7485   -7.5370    0.0000 C   0  0
   17.7485   -6.7120    0.0000 C   0  0
  2  4  1  0
  3  1  1  0
  4  3  1  6
  5  1  1  0
  6  2  1  0
  5  7  1  6
  8  6  1  0
  9  2  1  0
 10  1  1  0
 11  5  1  0
 12  4  1  0
 13  7  1  0
 14 10  1  0
 15 37  1  0
 16 36  1  0
 17  8  1  0
  8 18  1  6
 19 26  1  0
 20 22  2  0
 21 18  1  0
 22 12  1  0
 23 21  1  0
 24  3  2  0
 25 17  1  0
 26 13  1  0
 27 15  2  0
 28 16  2  0
 29  6  2  0
 30  7  2  0
 31 23  1  0
 32 21  2  0
 33 19  2  0
 34 32  1  0
 35 25  2  0
 36 47  1  0
 37 48  1  0
 38 15  1  0
 39 16  1  0
 40 19  1  0
 41 10  1  0
 42 14  1  0
 43 20  1  0
 44 22  1  0
 45 25  1  0
 26 46  1  6
 47 51  1  0
 48 49  1  0
 49 46  1  0
 50 45  1  0
 51 50  1  0
 52 41  1  0
 53 52  1  0
 54 55  1  0
 55 44  2  0
 14 11  1  0
 53 42  1  0
 20  9  1  0
 54 43  2  0
 34 31  2  0
M  END