
          03140815512D 1   1.00000     0.00000     0

 17 18  0     0  0            999 V2000
   -2.6306   -6.6360    0.0000 C   0  0  0  0  0  0           0  0  0
   -2.6306   -7.4656    0.0000 C   0  0  0  0  0  0           0  0  0
   -1.9161   -7.8780    0.0000 N   0  0  3  0  0  0           0  0  0
   -1.1972   -7.4656    0.0000 C   0  0  0  0  0  0           0  0  0
   -1.1972   -6.6360    0.0000 C   0  0  0  0  0  0           0  0  0
   -1.9161   -6.2190    0.0000 C   0  0  0  0  0  0           0  0  0
   -1.9173   -8.7029    0.0000 S   0  0  3  0  0  0           0  0  0
   -1.9248   -9.5232    0.0000 N   0  0  0  0  0  0           0  0  0
   -1.0924   -8.7072    0.0000 O   0  0  0  0  0  0           0  0  0
   -2.7423   -8.7032    0.0000 O   0  0  0  0  0  0           0  0  0
   -2.6429   -9.9292    0.0000 C   0  0  0  0  0  0           0  0  0
   -3.3504   -9.5074    0.0000 C   0  0  0  0  0  0           0  0  0
   -4.0681   -9.9126    0.0000 C   0  0  0  0  0  0           0  0  0
   -4.0760  -10.7384    0.0000 C   0  0  0  0  0  0           0  0  0
   -3.3604  -11.1572    0.0000 C   0  0  0  0  0  0           0  0  0
   -2.6457  -10.7496    0.0000 C   0  0  0  0  0  0           0  0  0
   -4.7937  -11.1453    0.0000 C   0  0  0  0  0  0           0  0  0
  1  6  1  0     0  0
  7  9  2  0     0  0
  2  3  1  0     0  0
  7 10  2  0     0  0
  3  4  1  0     0  0
  8 11  1  0     0  0
  4  5  1  0     0  0
 11 12  2  0     0  0
  5  6  1  0     0  0
 12 13  1  0     0  0
 13 14  2  0     0  0
  3  7  1  0     0  0
 14 15  1  0     0  0
  1  2  1  0     0  0
 15 16  2  0     0  0
 16 11  1  0     0  0
  7  8  1  0     0  0
 14 17  1  0     0  0
M  END