
          05080814032D 1   1.00000     0.00000     0

 30 34  0     1  0            999 V2000
   11.4904    2.3971    0.0000 C   0  0  0  0  0  0           0  0  0
   11.4904    1.5675    0.0000 C   0  0  0  0  0  0           0  0  0
   12.2049    1.1550    0.0000 N   0  0  3  0  0  0           0  0  0
   12.9239    1.5675    0.0000 C   0  0  0  0  0  0           0  0  0
   12.9239    2.3971    0.0000 C   0  0  0  0  0  0           0  0  0
   12.2049    2.8141    0.0000 C   0  0  0  0  0  0           0  0  0
   12.2037    0.3300    0.0000 C   0  0  0  0  0  0           0  0  0
   12.9176   -0.0835    0.0000 C   0  0  0  0  0  0           0  0  0
   12.9165   -0.9085    0.0000 C   0  0  0  0  0  0           0  0  0
   13.6304   -1.3220    0.0000 O   0  0  0  0  0  0           0  0  0
   14.3454   -0.9105    0.0000 C   0  0  0  0  0  0           0  0  0
   15.0567   -1.3253    0.0000 C   0  0  0  0  0  0           0  0  0
   15.0539    0.3248    0.0000 C   0  0  0  0  0  0           0  0  0
   14.3423   -0.0884    0.0000 C   0  0  0  0  0  0           0  0  0
   15.7729   -0.0885    0.0000 C   0  0  0  0  0  0           0  0  0
   15.7712   -0.9166    0.0000 C   0  0  0  0  0  0           0  0  0
   17.2039   -0.0913    0.0000 C   0  0  0  0  0  0           0  0  0
   16.4869    0.3264    0.0000 C   0  0  1  0  0  0           0  0  0
   17.2022   -0.9195    0.0000 N   0  0  3  0  0  0           0  0  0
   16.4835   -1.3254    0.0000 C   0  0  2  0  0  0           0  0  0
   16.6474   -2.1344    0.0000 C   0  0  0  0  0  0           0  0  0
   17.4675   -2.2286    0.0000 C   0  0  0  0  0  0           0  0  0
   17.8103   -1.4776    0.0000 C   0  0  0  0  0  0           0  0  0
   16.4873    1.1514    0.0000 C   0  0  0  0  0  0           0  0  0
   15.7666   -1.7325    0.0000 H   0  0  0  0  0  0           0  0  0
   17.2021    1.5591    0.0000 C   0  0  0  0  0  0           0  0  0
   17.2029    2.3834    0.0000 C   0  0  0  0  0  0           0  0  0
   16.4881    2.7971    0.0000 N   0  0  0  0  0  0           0  0  0
   15.7710    2.3805    0.0000 C   0  0  0  0  0  0           0  0  0
   15.7738    1.5577    0.0000 C   0  0  0  0  0  0           0  0  0
 14 11  1  0     0  0
 15 16  2  0     0  0
  3  7  1  0     0  0
  1  2  1  0     0  0
  7  8  1  0     0  0
  1  6  1  0     0  0
 15 18  1  0     0  0
 16 20  1  0     0  0
 19 17  1  0     0  0
 17 18  1  0     0  0
 19 20  1  0     0  0
  8  9  1  0     0  0
  2  3  1  0     0  0
  9 10  1  0     0  0
  3  4  1  0     0  0
 10 11  1  0     0  0
 20 21  1  0     0  0
 21 22  1  0     0  0
 22 23  1  0     0  0
 23 19  1  0     0  0
  4  5  1  0     0  0
 18 24  1  6     0  0
 11 12  2  0     0  0
 20 25  1  1     0  0
 12 16  1  0     0  0
 24 26  2  0     0  0
  5  6  1  0     0  0
 26 27  1  0     0  0
 15 13  1  0     0  0
 27 28  2  0     0  0
 28 29  1  0     0  0
 13 14  2  0     0  0
 29 30  2  0     0  0
 30 24  1  0     0  0
M  END