
  SciTegic01161211252D

 32 35  0  0  0  0            999 V2000
    0.5375   -4.8891    0.0000 O   0  0
   -0.1956   -5.2672    0.0000 S   0  0
    0.5005   -5.7137    0.0000 O   0  0
    0.5401   -3.2131    0.0000 N   0  0
    1.2002   -2.7155    0.0000 C   0  0
    0.9354   -1.9342    0.0000 C   0  0
    0.1079   -1.9476    0.0000 C   0  0
   -0.1339   -2.7366    0.0000 N   0  0
   -0.3195   -1.2394    0.0000 C   0  0
    0.0834   -0.5206    0.0000 C   0  0
   -0.3438    0.1862    0.0000 C   0  0
   -1.1696    0.1712    0.0000 C   0  0
   -1.5664   -0.5564    0.0000 C   0  0
   -1.1410   -1.2602    0.0000 C   0  0
    1.3723   -1.2375    0.0000 C   0  0
    2.1979   -1.2719    0.0000 C   0  0
    2.6371   -0.5725    0.0000 C   0  0
    2.2477    0.1576    0.0000 C   0  0
    1.4188    0.1840    0.0000 C   0  0
    0.9874   -0.5161    0.0000 C   0  0
    0.5473   -4.0332    0.0000 C   0  0
   -0.1682   -4.4429    0.0000 N   0  0
   -0.9235   -5.6578    0.0000 N   0  0
   -1.6193   -5.2186    0.0000 C   0  0
   -2.3449   -5.6058    0.0000 C   0  0
   -2.3763   -6.4300    0.0000 C   0  0
   -1.6758   -6.8656    0.0000 C   0  0
   -0.9441   -6.4812    0.0000 C   0  0
   -3.1014   -6.8150    0.0000 F   0  0
   -1.5951    0.8733    0.0000 Cl  0  0
    1.2593   -4.4417    0.0000 N   0  0
    1.9692   -4.0294    0.0000 C   0  0
  2  1  2  0
 16 17  1  0
  3  2  2  0
 17 18  2  0
  9 10  2  0
 18 19  1  0
  4  5  1  0
 19 20  2  0
 20 15  1  0
  6 15  1  0
 10 11  1  0
  4 21  1  0
 21 22  2  0
 22  2  1  0
 11 12  2  0
  2 23  1  0
 23 24  1  0
  5  6  1  0
 12 13  1  0
  6  7  1  0
 13 14  2  0
 14  9  1  0
 23 28  1  0
 24 25  1  0
 25 26  1  0
 26 27  1  0
 27 28  1  0
  7  9  1  0
 26 29  1  0
  7  8  2  0
 12 30  1  0
  8  4  1  0
 21 31  1  0
 15 16  2  0
 31 32  1  0
M  END