
  SciTegic04091511462D

 56 60  0  0  1  0            999 V2000
    7.8105   -0.7573    0.0000 N   0  0
    7.2585   -1.3703    0.0000 C   0  0
    8.8724   -1.7134    0.0000 C   0  0
    8.6175   -0.9288    0.0000 C   0  0  2  0  0  0
    5.8995   -1.8119    0.0000 N   0  0
    8.3204   -2.3265    0.0000 N   0  0
    6.3672   -5.5635    0.0000 N   0  0
    5.8573   -3.9942    0.0000 N   0  0
    8.2782   -4.5088    0.0000 N   0  0
    5.3053   -4.6073    0.0000 C   0  0
    6.1544   -2.5965    0.0000 C   0  0
    7.3980   -0.0428    0.0000 C   0  0
    6.4515   -1.1988    0.0000 C   0  0  2  0  0  0
    5.2631   -6.7897    0.0000 C   0  0
    6.9192   -4.9504    0.0000 C   0  0
    8.0233   -3.7242    0.0000 C   0  0
    5.5602   -5.3920    0.0000 C   0  0  2  0  0  0
    6.5911   -0.2143    0.0000 C   0  0
    5.6024   -3.2096    0.0000 C   0  0  2  0  0  0
    5.2631   -8.1246    0.0000 N   0  0
    4.7782   -7.4571    0.0000 C   0  0
    7.7262   -5.1219    0.0000 C   0  0  2  0  0  0
    8.5753   -3.1111    0.0000 C   0  0  2  0  0  0
    5.0082   -6.0051    0.0000 C   0  0
    6.0478   -7.0446    0.0000 C   0  0
    6.0478   -7.8696    0.0000 C   0  0
    9.0431   -6.8627    0.0000 C   0  0
    7.5134   -2.1550    0.0000 O   0  0
    9.6794   -1.8849    0.0000 O   0  0
    9.1695   -0.3157    0.0000 C   0  0
    6.9614   -2.7681    0.0000 O   0  0
    4.4983   -4.4358    0.0000 O   0  0
    7.2163   -3.5527    0.0000 O   0  0
    6.6643   -4.1658    0.0000 O   0  0
    4.7954   -3.0381    0.0000 C   0  0
    9.8500   -7.0342    0.0000 O   0  0
    7.9812   -5.9065    0.0000 C   0  0
    8.7881   -6.0781    0.0000 C   0  0
    8.4910   -7.4758    0.0000 N   0  0
    9.3823   -3.2826    0.0000 C   0  0
    4.5405   -2.2535    0.0000 C   0  0
   10.4442   -4.2388    0.0000 S   0  0
    6.7622   -6.6321    0.0000 C   0  0
    8.9146    0.4689    0.0000 C   0  0
    9.6373   -4.0673    0.0000 C   0  0
    6.7622   -8.2821    0.0000 C   0  0
   10.6992   -5.0234    0.0000 C   0  0
    5.0925   -1.6404    0.0000 C   0  0
    3.7335   -2.0820    0.0000 C   0  0
    8.1076    0.6405    0.0000 C   0  0
    9.4666    1.0820    0.0000 C   0  0
    7.4767   -7.0446    0.0000 C   0  0
    7.4767   -7.8696    0.0000 C   0  0
    3.4786   -1.2973    0.0000 C   0  0
    4.8376   -0.8558    0.0000 C   0  0
    4.0306   -0.6842    0.0000 C   0  0
  2  1  1  0
  3  4  1  0
  4  1  1  0
 13  5  1  6
  6  3  1  0
  7 15  1  0
  8 19  1  0
  9 16  1  0
 10  8  1  0
 11  5  1  0
 12  1  1  0
 13  2  1  0
 14 24  1  0
 15 22  1  0
 16 23  1  0
 17 10  1  0
 18 12  2  0
 19 11  1  0
 20 21  1  0
 21 14  2  0
 22  9  1  0
 23  6  1  0
 17 24  1  1
 25 14  1  0
 26 25  2  0
 27 38  1  0
 28  2  2  0
 29  3  2  0
  4 30  1  1
 31 11  2  0
 32 10  2  0
 33 16  2  0
 34 15  2  0
 19 35  1  1
 36 27  2  0
 22 37  1  1
 38 37  1  0
 39 27  1  0
 23 40  1  1
 41 35  1  0
 42 45  1  0
 43 25  1  0
 44 30  1  0
 45 40  1  0
 46 26  1  0
 47 42  1  0
 48 41  2  0
 49 41  1  0
 50 44  1  0
 51 44  1  0
 52 43  2  0
 53 52  1  0
 54 49  2  0
 55 48  1  0
 56 54  1  0
 18 13  1  0
  7 17  1  0
 56 55  2  0
 20 26  1  0
 53 46  2  0
M  END