
  SciTegic04071410272D

 30 32  0  0  0  0            999 V2000
   -1.5490    1.1780    0.0000 C   0  0  1  0  0  0
   -0.4820    0.3761    0.0000 C   0  0  2  0  0  0
   -0.9982    0.8048    0.0000 C   0  0
   -1.9699    0.8048    0.0000 C   0  0  1  0  0  0
   -2.1096    1.6179    0.0000 N   0  3
   -0.6202    1.1935    0.0000 C   0  0
   -2.4898    0.0925    0.0000 C   0  0
   -1.8695    0.4694    0.0000 C   0  0
   -0.0702   -0.3388    0.0000 C   0  0
    0.7548   -0.3396    0.0000 C   0  0
    0.7539   -1.1646    0.0000 C   0  0
    1.5798   -0.3404    0.0000 C   0  0
    0.7556    0.4854    0.0000 O   0  0
    1.9930    0.3737    0.0000 C   0  0
    2.8180    0.3729    0.0000 C   0  0
    3.2298   -0.3420    0.0000 C   0  0
    2.8166   -1.0561    0.0000 C   0  0
    1.9916   -1.0553    0.0000 C   0  0
    0.0391   -1.5764    0.0000 C   0  0
    0.0383   -2.4014    0.0000 C   0  0
    0.7523   -2.8146    0.0000 C   0  0
    1.4672   -2.4028    0.0000 C   0  0
    1.4680   -1.5778    0.0000 C   0  0
   -1.7390    1.9808    0.0000 H   0  0
   -2.5727    1.3681    0.0000 H   0  0
   -2.8740    1.9283    0.0000 C   0  0
   -2.0195    2.4380    0.0000 C   0  0
   -0.6750   -1.1632    0.0000 C   0  0
    1.5812    1.0885    0.0000 C   0  0
    5.4690    0.0000    0.0000 Br  0  5
  4  5  1  0
 12 14  2  0
  1  5  1  0
 14 15  1  0
  1  6  1  0
 15 16  2  0
  6  2  1  0
 16 17  1  0
  4  7  1  0
 17 18  2  0
 18 12  1  0
  1  8  1  0
 11 19  2  0
  7  8  1  0
 19 20  1  0
 20 21  2  0
  2  9  1  6
 21 22  1  0
 22 23  2  0
 23 11  1  0
  9 10  1  0
  1 24  1  6
  4 25  1  1
 10 11  1  0
  5 26  1  0
  2  3  1  0
  5 27  1  0
 10 12  1  0
 19 28  1  0
  3  4  1  0
 14 29  1  0
 10 13  1  0
M  CHG  2   5   1  30  -1
M  END