
  SciTegic11201309402D

112120  0  0  0  0            999 V2000
    1.1460  -15.1456    0.0000 C   0  0
    0.4344  -14.7253    0.0000 C   0  0
    0.4466  -13.9004    0.0000 C   0  0
    1.1663  -13.4968    0.0000 O   0  0
   -0.2624  -13.4757    0.0000 O   0  0
    1.1381  -15.9705    0.0000 C   0  0  2  0  0  0
    1.1542  -17.6037    0.0000 C   0  0
    0.4331  -17.2030    0.0000 C   0  0
    0.4196  -16.3781    0.0000 N   0  0
   -0.2745  -17.6271    0.0000 O   0  0
    1.8479  -16.3911    0.0000 C   0  0
    2.5670  -15.9868    0.0000 N   0  0
    1.8384  -17.2161    0.0000 O   0  0
    5.6585  -19.0552    0.0000 C   0  0
  -10.4148  -25.9596    0.0000 C   0  0
  -11.1962  -27.4188    0.0000 O   0  0
    1.7614  -24.0345    0.0000 C   0  0
    1.9860  -23.2407    0.0000 N   0  0
    2.3367  -24.6259    0.0000 O   0  0
    2.7858  -23.0382    0.0000 C   0  0  2  0  0  0
    3.0103  -22.2443    0.0000 C   0  0
    3.3610  -23.6296    0.0000 C   0  0  1  0  0  0
    3.1364  -24.4234    0.0000 C   0  0
    4.1607  -23.4271    0.0000 O   0  0
    3.8101  -22.0419    0.0000 N   0  0
    2.4351  -21.6529    0.0000 O   0  0
    0.7376  -25.0257    0.0000 N   0  0
    0.9620  -24.2366    0.0000 C   0  0  1  0  0  0
    0.2807  -23.7795    0.0000 C   0  0
   -0.3647  -24.2863    0.0000 C   0  0
   -0.0820  -25.0565    0.0000 C   0  0
    4.0346  -21.2480    0.0000 C   0  0  2  0  0  0
    4.8344  -21.0455    0.0000 C   0  0
    3.4594  -20.6566    0.0000 C   0  0
    5.4096  -21.6369    0.0000 O   0  0
    5.0598  -20.2502    0.0000 N   0  0
    5.7904  -19.8696    0.0000 C   0  0
    4.8432  -18.9289    0.0000 C   0  0
    4.4698  -19.6658    0.0000 C   0  0  1  0  0  0
    3.6448  -19.6641    0.0000 C   0  0
    3.2342  -18.9494    0.0000 N   0  0
    3.2308  -20.3777    0.0000 O   0  0
    3.7874  -18.3383    0.0000 C   0  0
    3.3787  -17.6216    0.0000 C   0  0
    2.5708  -17.7889    0.0000 C   0  0
    2.4800  -18.6096    0.0000 C   0  0  1  0  0  0
    1.7567  -19.0065    0.0000 C   0  0
    1.1634  -18.4286    0.0000 N   0  0
    1.7388  -19.8313    0.0000 O   0  0
    2.5136  -24.0004    0.0000 H   0  0
    1.3176  -25.6125    0.0000 C   0  0
    1.0994  -26.4081    0.0000 C   0  0  1  0  0  0
    2.1157  -25.4037    0.0000 O   0  0
    0.3012  -26.6169    0.0000 N   0  0
    1.6793  -26.9949    0.0000 C   0  0
    2.4774  -26.7861    0.0000 C   0  0
   -0.5209  -26.6279    0.0000 C   0  0
   -0.9394  -25.9170    0.0000 C   0  0
   -0.9273  -27.3458    0.0000 O   0  0
   -2.4876  -25.5247    0.0000 C   0  0
   -3.1931  -25.9523    0.0000 C   0  0
   -2.5051  -24.6999    0.0000 O   0  0
   -3.9162  -25.5551    0.0000 C   0  0
   -4.6217  -25.9827    0.0000 C   0  0
   -5.3448  -25.5855    0.0000 C   0  0
   -6.0580  -26.0131    0.0000 N   0  0
   -6.7766  -25.6160    0.0000 C   0  0
   -7.4794  -26.0436    0.0000 N   0  0
   -6.7923  -24.7911    0.0000 S   0  0
   -8.2063  -25.6464    0.0000 C   0  0
   -8.2190  -24.8240    0.0000 C   0  0
   -8.9385  -24.4268    0.0000 C   0  0
   -8.9017  -26.0769    0.0000 C   0  0
   -9.6242  -25.6835    0.0000 C   0  0
   -9.6456  -24.8499    0.0000 C   0  0
  -10.4488  -24.6109    0.0000 C   0  0
  -10.9184  -25.2969    0.0000 O   0  0
  -10.7159  -23.8325    0.0000 O   0  0
   -9.9738  -26.6590    0.0000 C   0  0
  -10.3724  -27.3887    0.0000 C   0  0
   -9.9337  -28.0932    0.0000 C   0  0
   -9.1046  -28.0693    0.0000 C   0  0
   -8.7136  -27.3350    0.0000 C   0  0
   -9.1487  -26.6335    0.0000 C   0  0
  -11.6333  -26.7146    0.0000 C   0  0
  -11.2459  -25.9902    0.0000 C   0  0
  -11.6780  -25.2930    0.0000 C   0  0
  -12.4977  -25.3189    0.0000 C   0  0
  -12.8871  -26.0479    0.0000 C   0  0
  -12.4489  -26.7422    0.0000 C   0  0
   -8.6718  -28.7708    0.0000 O   0  0
  -13.7124  -26.0773    0.0000 O   0  0
    3.0573  -27.3728    0.0000 C   0  0
    2.8397  -28.1705    0.0000 O   0  0
    3.8561  -27.1660    0.0000 O   0  0
   -1.7650  -25.9251    0.0000 N   0  0
    0.4341  -18.8171    0.0000 C   0  0
    0.4060  -19.6417    0.0000 C   0  0
   -0.3221  -20.0296    0.0000 C   0  0
   -0.3501  -20.8541    0.0000 C   0  0
   -1.0782  -21.2421    0.0000 C   0  0
   -1.7708  -25.1000    0.0000 C   0  0
   -1.0593  -24.6825    0.0000 C   0  0
   -1.0651  -23.8575    0.0000 C   0  0
   -1.7825  -23.4500    0.0000 C   0  0
   -1.7883  -22.6251    0.0000 C   0  0
   -2.5057  -22.2176    0.0000 C   0  0
   -1.7783  -20.8055    0.0000 C   0  0
   -2.5063  -21.1934    0.0000 C   0  0
    1.6488  -18.0536    0.0000 H   0  0
    3.9472  -18.8132    0.0000 H   0  0
    1.1328  -23.2513    0.0000 H   0  0
 15 86  1  0
 52 54  1  0
  3  4  1  0
 52 55  1  6
  8  9  1  0
 55 56  1  0
 15 79  1  0
 54 57  1  0
 85 16  1  0
 57 58  1  0
 28 29  1  0
 57 59  2  0
 58 96  1  0
 29 30  1  0
 96 60  1  0
 30 31  1  0
 60 61  1  0
 31 27  1  0
 60 62  2  0
 16 80  1  0
 61 63  1  0
 25 32  1  0
 63 64  1  0
  3  5  2  0
 64 65  1  0
 32 33  1  0
 65 66  1  0
 28 17  1  0
 66 67  1  0
 32 34  1  1
 67 68  1  0
  8 10  2  0
 67 69  2  0
 33 35  2  0
 68 70  1  0
 17 18  1  0
 70 71  2  0
 33 36  1  0
 71 72  1  0
 72 75  2  0
 36 37  1  0
 74 73  2  0
 73 70  1  0
 74 75  1  0
  6  9  1  1
 17 19  2  0
  2  3  1  0
 37 14  1  0
 75 76  1  0
 76 77  1  0
 77 15  1  0
 15 74  1  0
 14 38  1  0
 76 78  2  0
 38 39  1  0
 39 36  1  0
 79 80  2  0
 18 20  1  0
 80 81  1  0
 39 40  1  0
 81 82  2  0
  6 11  1  0
 82 83  1  0
 40 41  1  0
 83 84  2  0
 84 79  1  0
 20 21  1  0
 40 42  2  0
 85 86  2  0
 41 43  1  0
 86 87  1  0
  1  2  1  0
 87 88  2  0
 20 22  1  0
 88 89  1  0
 11 12  1  0
 89 90  2  0
 90 85  1  0
 22 23  1  6
 82 91  1  0
 43 44  1  0
 89 92  1  0
 44 45  1  0
 56 93  1  0
 45 46  1  0
 46 41  1  0
 93 94  1  0
 93 95  2  0
 48  7  1  0
 46 47  1  0
 48 97  1  0
  6  1  1  0
 22 24  1  0
 97 98  1  0
 47 48  1  0
 98 99  1  0
 11 13  2  0
 99100  1  0
 47 49  2  0
100101  1  0
 21 25  1  0
 96102  1  0
 20 50  1  1
102103  1  0
  7  8  1  0
103104  1  0
 27 51  1  0
104105  1  0
 21 26  2  0
105106  1  0
 51 52  1  0
106107  1  0
 27 28  1  0
101108  1  0
 51 53  2  0
108109  1  0
107109  2  0
 46110  1  1
 39111  1  1
 28112  1  6
M  END