
          11280715152D 1   1.00000     0.00000     0

 21 23  0     0  0            999 V2000
    0.4542   -2.9750    0.0000 N   0  0  3  0  0  0           0  0  0
   -0.3708   -3.0167    0.0000 C   0  0  0  0  0  0           0  0  0
    3.8292   -1.7125    0.0000 N   0  0  3  0  0  0           0  0  0
    1.7292   -2.3167    0.0000 C   0  0  0  0  0  0           0  0  0
    2.5542   -2.3625    0.0000 C   0  0  0  0  0  0           0  0  0
    4.1667   -0.4250    0.0000 C   0  0  3  0  0  0           0  0  0
    3.5292   -0.9417    0.0000 C   0  0  0  0  0  0           0  0  0
   -0.8958   -2.3792    0.0000 O   0  0  0  0  0  0           0  0  0
    4.8542   -0.8667    0.0000 C   0  0  0  0  0  0           0  0  0
    4.1167    0.4000    0.0000 C   0  0  0  0  0  0           0  0  0
    4.6417   -1.6667    0.0000 C   0  0  0  0  0  0           0  0  0
    0.9042   -2.2792    0.0000 C   0  0  0  0  0  0           0  0  0
    3.3792   -2.4042    0.0000 C   0  0  0  0  0  0           0  0  0
    0.7542   -3.7417    0.0000 C   0  0  0  0  0  0           0  0  0
   -0.5708   -3.8167    0.0000 C   0  0  0  0  0  0           0  0  0
    0.1167   -4.2667    0.0000 C   0  0  0  0  0  0           0  0  0
    4.8042    0.8458    0.0000 C   0  0  0  0  0  0           0  0  0
    3.3792    0.7708    0.0000 C   0  0  0  0  0  0           0  0  0
    3.3417    1.5875    0.0000 C   0  0  0  0  0  0           0  0  0
    4.7667    1.6708    0.0000 C   0  0  0  0  0  0           0  0  0
    4.0292    2.0458    0.0000 C   0  0  0  0  0  0           0  0  0
  2  1  1  0     0  0
  3 13  1  0     0  0
  4 12  1  0     0  0
  5  4  3  0     0  0
  6  7  1  0     0  0
  7  3  1  0     0  0
  8  2  2  0     0  0
  9 11  1  0     0  0
 10  6  1  0     0  0
 11  3  1  0     0  0
 12  1  1  0     0  0
 13  5  1  0     0  0
 14  1  1  0     0  0
 15  2  1  0     0  0
 16 14  1  0     0  0
 17 10  2  0     0  0
 18 10  1  0     0  0
 19 18  2  0     0  0
 20 17  1  0     0  0
 21 19  1  0     0  0
 15 16  1  0     0  0
  9  6  1  0     0  0
 20 21  2  0     0  0
M  END