
  SciTegic02271514582D

 33 37  0  0  0  0            999 V2000
   14.5842   -3.5989    0.0000 C   0  0
   14.5831   -4.4184    0.0000 C   0  0
   15.2911   -4.8274    0.0000 C   0  0
   15.2893   -3.1900    0.0000 C   0  0
   15.9979   -3.5953    0.0000 C   0  0
   15.9987   -4.4143    0.0000 C   0  0
   16.7072   -4.8214    0.0000 N   0  0
   17.4155   -4.4106    0.0000 C   0  0
   17.4108   -3.5884    0.0000 C   0  0
   16.7017   -3.1851    0.0000 C   0  0
   13.8764   -3.1905    0.0000 C   0  0
   13.8762   -2.3733    0.0000 C   0  0
   13.1688   -3.5992    0.0000 C   0  0
   13.1659   -2.7818    0.0000 O   0  0
   14.5430   -1.8940    0.0000 S   0  0
   14.2903   -1.1169    0.0000 C   0  0
   13.4731   -1.1171    0.0000 N   0  0
   13.2208   -1.8943    0.0000 C   0  0
   12.4611   -3.1891    0.0000 C   0  0
   11.7540   -3.5972    0.0000 C   0  0
   11.7537   -4.4152    0.0000 N   0  0
   12.4665   -4.8235    0.0000 C   0  0
   13.1707   -4.4131    0.0000 C   0  0
   16.6973   -2.3679    0.0000 Cl  0  0
   18.1160   -3.1755    0.0000 C   0  0
   18.8262   -3.5798    0.0000 C   0  0
   18.1248   -4.8164    0.0000 Cl  0  0
   18.8265   -4.3966    0.0000 C   0  0
   19.5359   -4.8008    0.0000 C   0  0
   20.2420   -4.3878    0.0000 C   0  0
   20.2344   -3.5664    0.0000 C   0  0
   19.5245   -3.1659    0.0000 C   0  0
   20.9528   -4.7912    0.0000 Cl  0  0
  1  2  2  0
  2  3  1  0
  3  6  2  0
  5  4  2  0
  4  1  1  0
  5  6  1  0
  6  7  1  0
  7  8  2  0
  8  9  1  0
  9 10  2  0
 10  5  1  0
  1 11  1  0
 11 12  1  0
 11 13  1  0
 11 14  1  0
 12 15  1  0
 15 16  1  0
 16 17  2  0
 17 18  1  0
 18 12  2  0
 13 19  2  0
 19 20  1  0
 20 21  2  0
 21 22  1  0
 22 23  2  0
 23 13  1  0
 10 24  1  0
  9 25  1  0
 25 26  1  0
  8 27  1  0
 26 28  2  0
 28 29  1  0
 29 30  2  0
 30 31  1  0
 31 32  2  0
 32 26  1  0
 30 33  1  0
M  END