
  SciTegic01061414252D

 28 30  0  0  0  0            999 V2000
    8.1522   -7.1996    0.0000 C   0  0
    8.8204   -7.6773    0.0000 C   0  0
    8.1071   -3.9152    0.0000 O   0  0
    8.8452   -5.9597    0.0000 C   0  0
    8.8333   -5.1377    0.0000 C   0  0
    7.4238   -5.9776    0.0000 C   0  0
    8.1403   -6.3776    0.0000 C   0  0
    8.9147  -11.2817    0.0000 C   0  0
    8.1189   -4.7373    0.0000 C   0  0
    7.7553   -8.4734    0.0000 N   0  0
    9.0723   -9.1149    0.0000 C   0  0
    7.4141   -5.1593    0.0000 C   0  0
    8.5773   -8.4616    0.0000 C   0  0
    8.7449   -9.8698    0.0000 N   0  0
    7.4931   -7.6931    0.0000 O   0  0
    6.7191   -6.3955    0.0000 O   0  0
    9.8855   -9.0212    0.0000 O   0  0
    9.5616   -6.3596    0.0000 O   0  0
    9.2385  -10.5289    0.0000 C   0  0
   10.2633   -5.9408    0.0000 C   0  0
   10.9756   -6.3402    0.0000 C   0  0
   11.6768   -5.9220    0.0000 C   0  0
   11.6653   -5.1040    0.0000 C   0  0
   10.9468   -4.7060    0.0000 C   0  0
   10.2485   -5.1265    0.0000 C   0  0
   12.3708   -4.6828    0.0000 N   0  3
   12.3578   -3.8657    0.0000 O   0  0
   13.0849   -5.0801    0.0000 O   0  5
 19  8  1  0
  4  5  2  0
  5  9  1  0
 14 19  1  0
 15 10  1  0
 11 17  2  0
 13  2  1  0
 10 13  2  0
 15  1  1  0
 12  6  1  0
  4 18  1  0
  6 16  1  0
  1  7  1  0
  9  3  1  0
  2  1  2  0
 13 11  1  0
 11 14  1  0
  9 12  2  0
  7  6  2  0
  7  4  1  0
 18 20  1  0
 20 21  2  0
 21 22  1  0
 22 23  2  0
 23 24  1  0
 24 25  2  0
 25 20  1  0
 26 27  2  0
 26 28  1  0
 23 26  1  0
M  CHG  2  26   1  28  -1
M  END