
          11280714522D 1   1.00000     0.00000     0

 52 57  0     0  0            999 V2000
    1.9042    0.5250    0.0000 N   0  0  0  0  0  0           0  0  0
    2.2667    1.2833    0.0000 C   0  0  3  0  0  0           0  0  0
    1.0917    2.2125    0.0000 N   0  0  3  0  0  0           0  0  0
    1.0917    0.3375    0.0000 C   0  0  0  0  0  0           0  0  0
    1.9042    2.0333    0.0000 C   0  0  0  0  0  0           0  0  0
    0.4417    0.8583    0.0000 C   0  0  0  0  0  0           0  0  0
    3.0917    1.2833    0.0000 N   0  0  0  0  0  0           0  0  0
    0.4417    1.6875    0.0000 C   0  0  0  0  0  0           0  0  0
    3.5042    0.5708    0.0000 C   0  0  0  0  0  0           0  0  0
    0.9125   -0.4667    0.0000 C   0  0  0  0  0  0           0  0  0
    4.3292    0.5708    0.0000 N   0  0  0  0  0  0           0  0  0
    6.3167   -9.4917    0.0000 N   0  0  3  0  0  0           0  0  0
    2.3750   -3.7417    0.0000 C   0  0  0  0  0  0           0  0  0
    2.4167    2.6833    0.0000 O   0  0  0  0  0  0           0  0  0
    3.0917   -0.1417    0.0000 O   0  0  0  0  0  0           0  0  0
    1.5167   -1.0167    0.0000 C   0  0  0  0  0  0           0  0  0
    4.7417   -0.1417    0.0000 C   0  0  0  0  0  0           0  0  0
    3.1625   -3.4917    0.0000 O   0  0  0  0  0  0           0  0  0
    5.5667   -9.1542    0.0000 C   0  0  0  0  0  0           0  0  0
    5.4750   -8.3375    0.0000 C   0  0  0  0  0  0           0  0  0
    2.1917   -4.5500    0.0000 N   0  0  0  0  0  0           0  0  0
    1.9417   -2.3792    0.0000 O   0  0  0  0  0  0           0  0  0
    0.9042    3.0208    0.0000 C   0  0  0  0  0  0           0  0  0
    1.7667   -3.1875    0.0000 C   0  0  0  0  0  0           0  0  0
    1.3375   -1.8167    0.0000 C   0  0  0  0  0  0           0  0  0
    4.3292   -0.8542    0.0000 C   0  0  0  0  0  0           0  0  0
    4.7250   -8.0000    0.0000 C   0  0  0  0  0  0           0  0  0
   -0.2750    0.4458    0.0000 C   0  0  0  0  0  0           0  0  0
    4.6375   -7.1875    0.0000 C   0  0  0  0  0  0           0  0  0
   -0.2750    2.1000    0.0000 C   0  0  0  0  0  0           0  0  0
    4.7417   -1.5667    0.0000 C   0  0  0  0  0  0           0  0  0
    0.1250   -0.7042    0.0000 C   0  0  0  0  0  0           0  0  0
    3.0417   -5.7000    0.0000 C   0  0  0  0  0  0           0  0  0
    3.8875   -6.8542    0.0000 O   0  0  0  0  0  0           0  0  0
    6.9667   -9.0042    0.0000 C   0  0  0  0  0  0           0  0  0
    6.4042  -10.3125    0.0000 C   0  0  0  0  0  0           0  0  0
   -0.0583   -1.5042    0.0000 C   0  0  0  0  0  0           0  0  0
    5.9792   -0.8417    0.0000 C   0  0  0  0  0  0           0  0  0
    6.0417   -7.0375    0.0000 C   0  0  0  0  0  0           0  0  0
    2.9417   -4.8792    0.0000 C   0  0  0  0  0  0           0  0  0
    5.5667   -0.1375    0.0000 C   0  0  0  0  0  0           0  0  0
    6.1375   -7.8542    0.0000 C   0  0  0  0  0  0           0  0  0
    3.7917   -6.0292    0.0000 C   0  0  0  0  0  0           0  0  0
    0.5417   -2.0667    0.0000 C   0  0  0  0  0  0           0  0  0
    5.2917   -6.7042    0.0000 C   0  0  0  0  0  0           0  0  0
    5.5667   -1.5667    0.0000 C   0  0  0  0  0  0           0  0  0
    4.3292   -2.2792    0.0000 C   0  0  0  0  0  0           0  0  0
   -0.9875    0.8583    0.0000 C   0  0  0  0  0  0           0  0  0
   -0.9875    1.6875    0.0000 C   0  0  0  0  0  0           0  0  0
    7.1542  -10.6417    0.0000 C   0  0  0  0  0  0           0  0  0
    7.7167   -9.3417    0.0000 C   0  0  0  0  0  0           0  0  0
    7.8167  -10.1625    0.0000 C   0  0  0  0  0  0           0  0  0
  2  1  1  0     0  0
  3  5  1  0     0  0
  4  1  2  0     0  0
  5  2  1  0     0  0
  6  4  1  0     0  0
  7  2  1  0     0  0
  8  6  1  0     0  0
  9  7  1  0     0  0
 10  4  1  0     0  0
 11  9  1  0     0  0
 12 19  1  0     0  0
 13 24  1  0     0  0
 14  5  2  0     0  0
 15  9  2  0     0  0
 16 10  1  0     0  0
 17 11  1  0     0  0
 18 13  2  0     0  0
 19 20  1  0     0  0
 20 27  2  0     0  0
 21 13  1  0     0  0
 22 25  1  0     0  0
 23  3  1  0     0  0
 24 22  1  0     0  0
 25 16  2  0     0  0
 26 17  2  0     0  0
 27 29  1  0     0  0
 28  6  2  0     0  0
 29 34  1  0     0  0
 30  8  2  0     0  0
 31 26  1  0     0  0
 32 10  2  0     0  0
 33 40  1  0     0  0
 34 43  1  0     0  0
 35 12  1  0     0  0
 36 12  1  0     0  0
 37 32  1  0     0  0
 38 41  2  0     0  0
 39 45  1  0     0  0
 40 21  1  0     0  0
 41 17  1  0     0  0
 42 39  2  0     0  0
 43 33  1  0     0  0
 44 37  2  0     0  0
 45 29  2  0     0  0
 46 38  1  0     0  0
 47 31  1  0     0  0
 48 28  1  0     0  0
 49 48  2  0     0  0
 50 36  1  0     0  0
 51 35  1  0     0  0
 52 50  1  0     0  0
  3  8  1  0     0  0
 44 25  1  0     0  0
 49 30  1  0     0  0
 46 31  2  0     0  0
 20 42  1  0     0  0
 52 51  1  0     0  0
M  END