
          11280714542D 1   1.00000     0.00000     0

 30 32  0     1  0            999 V2000
    5.0000   -3.0750    0.0000 C   0  0  0  0  0  0           0  0  0
    5.4125   -3.7875    0.0000 N   0  0  3  0  0  0           0  0  0
    6.2375   -3.7875    0.0000 C   0  0  1  0  0  0           0  0  0
    7.6667   -0.4667    0.0000 C   0  0  0  0  0  0           0  0  0
    6.2375   -2.9625    0.0000 C   0  0  0  0  0  0           0  0  0
    7.4750   -4.5000    0.0000 N   0  0  3  0  0  0           0  0  0
    7.0625   -3.7875    0.0000 C   0  0  0  0  0  0           0  0  0
    2.5167   -1.6500    0.0000 C   0  0  0  0  0  0           0  0  0
    4.1667   -3.0750    0.0000 C   0  0  0  0  0  0           0  0  0
    7.6750   -1.3000    0.0000 N   0  0  0  0  0  0           0  0  0
    7.6667    0.3583    0.0000 S   0  0  0  0  0  0           0  0  0
    4.9917   -2.2000    0.0000 O   0  0  0  0  0  0           0  0  0
    2.9292   -0.9292    0.0000 C   0  0  0  0  0  0           0  0  0
    6.9542   -2.5500    0.0000 C   0  0  0  0  0  0           0  0  0
    2.9292   -2.3625    0.0000 C   0  0  0  0  0  0           0  0  0
    3.7542   -2.3625    0.0000 C   0  0  0  0  0  0           0  0  0
    3.7542   -0.9292    0.0000 C   0  0  0  0  0  0           0  0  0
    6.9542   -1.7167    0.0000 C   0  0  0  0  0  0           0  0  0
    1.6917   -1.6542    0.0000 Cl  0  0  0  0  0  0           0  0  0
    4.1667   -1.6417    0.0000 C   0  0  0  0  0  0           0  0  0
    2.5042   -0.2042    0.0000 Cl  0  0  0  0  0  0           0  0  0
    5.0000   -4.5042    0.0000 C   0  0  0  0  0  0           0  0  0
    5.5250   -2.5500    0.0000 C   0  0  0  0  0  0           0  0  0
    8.2792   -4.6750    0.0000 C   0  0  0  0  0  0           0  0  0
    7.0625   -5.2167    0.0000 C   0  0  0  0  0  0           0  0  0
    5.5250   -1.7167    0.0000 C   0  0  0  0  0  0           0  0  0
    6.2375   -1.3042    0.0000 C   0  0  0  0  0  0           0  0  0
    7.6167   -5.8292    0.0000 C   0  0  0  0  0  0           0  0  0
    8.3667   -5.4917    0.0000 C   0  0  0  0  0  0           0  0  0
    6.2375   -4.6125    0.0000 H   0  0  0  0  0  0           0  0  0
  2  1  1  0     0  0
  3  2  1  0     0  0
  4 10  2  0     0  0
  5  3  1  0     0  0
  6  7  1  0     0  0
  7  3  1  0     0  0
  8 15  2  0     0  0
  9  1  1  0     0  0
 10 18  1  0     0  0
 11  4  2  0     0  0
 12  1  2  0     0  0
 13 17  2  0     0  0
 14  5  2  0     0  0
 15 16  1  0     0  0
 16  9  1  0     0  0
 17 20  1  0     0  0
 18 14  1  0     0  0
 19  8  1  0     0  0
 20 16  2  0     0  0
 21 13  1  0     0  0
 22  2  1  0     0  0
 23  5  1  0     0  0
 24  6  1  0     0  0
 25  6  1  0     0  0
 26 23  2  0     0  0
 27 26  1  0     0  0
 28 25  1  0     0  0
 29 24  1  0     0  0
  3 30  1  6     0  0
 13  8  1  0     0  0
 28 29  1  0     0  0
 18 27  2  0     0  0
M  END