
  SciTegic04091511462D

 76 80  0  0  1  0            999 V2000
    5.1514   -5.9664    0.0000 N   0  0
    5.4051   -5.1806    0.0000 C   0  0
    3.6339   -0.0249    0.0000 N   0  0
    4.8563   -4.5652    0.0000 C   0  0  2  0  0  0
    5.0517   -0.8399    0.0000 C   0  0
    5.3677   -3.9208    0.0000 N   0  0
    5.5007   -1.5259    0.0000 N   0  0
    1.3264   -0.6486    0.0000 N   0  0
    2.8107    0.0208    0.0000 C   0  0
    5.6670   -3.1557    0.0000 C   0  0
    0.8025   -1.2889    0.0000 C   0  0
    6.4653   -6.6275    0.0000 C   0  0
    4.4072   -0.3160    0.0000 C   0  0  2  0  0  0
    5.7044   -2.3325    0.0000 C   0  0  2  0  0  0
    0.4615   -2.8813    0.0000 N   0  0
    5.6379   -6.6275    0.0000 C   0  0  2  0  0  0
    2.0124   -0.1913    0.0000 C   0  0  2  0  0  0
    0.6777   -3.6713    0.0000 C   0  0
    0.5031   -2.0581    0.0000 C   0  0  2  0  0  0
    6.8769   -7.3384    0.0000 N   0  0
    6.5277   -2.2452    0.0000 C   0  0
    8.1118   -8.0577    0.0000 C   0  0
   10.5898   -5.2013    0.0000 C   0  0
    1.1268   -4.3698    0.0000 C   0  0
    3.3678   -5.2305    0.0000 S   0  0
    2.5861   -5.3760    0.0000 S   0  0
    7.2387   -1.8253    0.0000 C   0  0
    8.9350   -8.0577    0.0000 N   0  0
    1.7712   -4.8895    0.0000 C   0  0
    7.7002   -7.3384    0.0000 C   0  0  2  0  0  0
   10.1699   -8.7729    0.0000 C   0  0
   11.4130   -5.2013    0.0000 N   0  0
    6.2159   -5.0059    0.0000 O   0  0
    5.6546   -0.2911    0.0000 O   0  0
    4.1578   -5.0142    0.0000 C   0  0
    6.8769   -5.9165    0.0000 O   0  0
    2.7691    0.6569    0.0000 O   0  0
    0.0915   -0.8773    0.0000 O   0  0
    6.4736   -3.3221    0.0000 O   0  0
    1.6839    0.5571    0.0000 C   0  0
   -0.2994   -1.8876    0.0000 C   0  0
   -0.0706   -4.0081    0.0000 O   0  0
    7.7002   -8.7729    0.0000 O   0  0
    7.2345   -1.0020    0.0000 O   0  0
   10.5898   -8.0577    0.0000 O   0  0
   10.1699   -5.9165    0.0000 N   0  0
    9.3466   -8.7729    0.0000 C   0  0
   10.1699   -4.4821    0.0000 N   0  0
    4.8189    0.3950    0.0000 C   0  0
    4.3656   -6.2159    0.0000 C   0  0
    7.9579   -2.2369    0.0000 N   0  0
   10.5815   -9.4838    0.0000 N   0  0
   -0.5571   -1.1018    0.0000 C   0  0
    2.1621    1.2307    0.0000 C   0  0
    5.1514   -7.3010    0.0000 C   0  0
    4.3656   -7.0474    0.0000 C   0  0
    2.2369   -5.5049    0.0000 C   0  0
    0.9979   -4.7939    0.0000 C   0  0
    8.1118   -6.6275    0.0000 C   0  0
    9.3466   -5.9165    0.0000 C   0  0
    4.4030    1.1059    0.0000 C   0  0
    5.6421    0.3950    0.0000 C   0  0
   -1.3679   -0.9272    0.0000 C   0  0
    1.8336    1.9790    0.0000 C   0  0
    2.9853    1.1351    0.0000 C   0  0
   -0.0083   -0.4906    0.0000 C   0  0
    8.9350   -6.6275    0.0000 C   0  0
    1.8253   -6.2241    0.0000 C   0  0
    0.5904   -5.5049    0.0000 C   0  0
   -0.2577    0.2952    0.0000 C   0  0
    2.3117    2.6526    0.0000 C   0  0
    3.4676    1.8044    0.0000 C   0  0
   -1.6173   -0.1414    0.0000 C   0  0
    0.9979   -6.2241    0.0000 C   0  0
   -1.0685    0.4698    0.0000 C   0  0
    3.1350    2.5570    0.0000 C   0  0
  2  1  1  0
  3 13  1  0
  4  2  1  1
  5  7  1  0
  6  4  1  0
  7 14  1  0
  8 11  1  0
  9  3  1  0
 10  6  1  0
 11 19  1  0
 16 12  1  6
 13  5  1  0
 14 10  1  0
 15 18  1  0
 16  1  1  0
 17  9  1  0
 18 24  1  0
 19 15  1  0
 20 12  1  0
 14 21  1  1
 22 30  1  0
 23 46  2  0
 24 29  1  0
 25 35  1  0
 26 25  1  0
 27 21  1  0
 28 22  1  0
 29 26  1  0
 30 20  1  1
 31 47  1  0
 32 23  1  0
 33  2  2  0
 34  5  2  0
  4 35  1  0
 36 12  2  0
 37  9  2  0
 38 11  2  0
 39 10  2  0
 17 40  1  1
 19 41  1  6
 42 18  2  0
 43 22  2  0
 44 27  2  0
 45 31  2  0
 46 60  1  0
 47 28  1  0
 48 23  1  0
 13 49  1  1
 50  1  1  0
 51 27  1  0
 52 31  1  0
 53 41  1  0
 54 40  1  0
 16 55  1  0
 56 50  1  0
 57 29  1  0
 58 29  1  0
 30 59  1  0
 60 67  1  0
 61 49  1  0
 62 49  1  0
 63 53  1  0
 64 54  1  0
 65 54  2  0
 66 53  2  0
 67 59  1  0
 68 57  1  0
 69 58  1  0
 70 66  1  0
 71 64  2  0
 72 65  1  0
 73 63  2  0
 74 69  1  0
 75 70  2  0
 76 72  2  0
 55 56  1  0
 74 68  1  0
  8 17  1  0
 75 73  1  0
 76 71  1  0
M  END