
  -ISIS-  03291115432D

 50 46  0  0  1  0  0  0  0  0999 V2000
    3.6500   -4.6000    0.0000 C   0  0  2  0  0  0  0  0  0  0  0  0
    4.3625   -4.1875    0.0000 C   0  0  2  0  0  0  0  0  0  0  0  0
    0.7875   -4.5875    0.0000 C   0  0  1  0  0  0  0  0  0  0  0  0
    1.5000   -4.1750    0.0000 C   0  0  2  0  0  0  0  0  0  0  0  0
    2.9250   -5.8292    0.0000 S   0  0  3  0  0  0  0  0  0  0  0  0
    5.7875   -4.1958    0.0000 S   0  0  3  0  0  0  0  0  0  0  0  0
    0.0750   -5.8250    0.0000 S   0  0  3  0  0  0  0  0  0  0  0  0
    2.9292   -4.1792    0.0000 C   0  0  1  0  0  0  0  0  0  0  0  0
    2.9375   -1.7125    0.0000 S   0  0  3  0  0  0  0  0  0  0  0  0
    0.0667   -0.8875    0.0000 S   0  0  3  0  0  0  0  0  0  0  0  0
    0.0750   -4.1750    0.0000 C   0  0  2  0  0  0  0  0  0  0  0  0
    1.5042   -3.3500    0.0000 O   0  0  0  0  0  0  0  0  0  0  0  0
    2.9375   -3.3625    0.0000 C   0  0  2  0  0  0  0  0  0  0  0  0
    2.2167   -4.5917    0.0000 O   0  0  0  0  0  0  0  0  0  0  0  0
    4.3625   -3.3625    0.0000 C   0  0  1  0  0  0  0  0  0  0  0  0
    3.6500   -2.9500    0.0000 O   0  0  0  0  0  0  0  0  0  0  0  0
    0.7875   -2.9417    0.0000 C   0  0  1  0  0  0  0  0  0  0  0  0
    0.0750   -3.3542    0.0000 C   0  0  2  0  0  0  0  0  0  0  0  0
    3.6417   -5.4250    0.0000 O   0  0  0  0  0  0  0  0  0  0  0  0
    5.0750   -4.6042    0.0000 O   0  0  0  0  0  0  0  0  0  0  0  0
    0.7875   -5.4125    0.0000 O   0  0  0  0  0  0  0  0  0  0  0  0
    2.2167   -2.9417    0.0000 C   0  0  0  0  0  0  0  0  0  0  0  0
    0.7875   -2.1167    0.0000 C   0  0  0  0  0  0  0  0  0  0  0  0
    0.0750   -1.7125    0.0000 O   0  0  0  0  0  0  0  0  0  0  0  0
    2.2250   -2.1167    0.0000 O   0  0  0  0  0  0  0  0  0  0  0  0
   -0.6333   -6.2500    0.0000 O   0  5  0  0  0  0  0  0  0  0  0  0
    2.2167   -6.2542    0.0000 O   0  5  0  0  0  0  0  0  0  0  0  0
    6.5125   -3.8042    0.0000 O   0  5  0  0  0  0  0  0  0  0  0  0
    3.6625   -1.3125    0.0000 O   0  5  0  0  0  0  0  0  0  0  0  0
    0.0667   -0.0625    0.0000 O   0  5  0  0  0  0  0  0  0  0  0  0
    0.4792   -6.5375    0.0000 O   0  0  0  0  0  0  0  0  0  0  0  0
   -0.3458   -5.1125    0.0000 O   0  0  0  0  0  0  0  0  0  0  0  0
    3.3375   -6.5417    0.0000 O   0  0  0  0  0  0  0  0  0  0  0  0
    2.5083   -5.1125    0.0000 O   0  0  0  0  0  0  0  0  0  0  0  0
    6.2000   -4.9125    0.0000 O   0  0  0  0  0  0  0  0  0  0  0  0
    5.3750   -3.4792    0.0000 O   0  0  0  0  0  0  0  0  0  0  0  0
    3.3500   -2.4250    0.0000 O   0  0  0  0  0  0  0  0  0  0  0  0
    0.8917   -0.8875    0.0000 O   0  0  0  0  0  0  0  0  0  0  0  0
   -0.7583   -0.8792    0.0000 O   0  0  0  0  0  0  0  0  0  0  0  0
    2.5250   -0.9917    0.0000 O   0  0  0  0  0  0  0  0  0  0  0  0
   -0.6375   -4.5917    0.0000 O   0  0  0  0  0  0  0  0  0  0  0  0
   -0.6375   -2.9500    0.0000 O   0  0  0  0  0  0  0  0  0  0  0  0
    5.0792   -2.9542    0.0000 O   0  0  0  0  0  0  0  0  0  0  0  0
    6.9250   -2.8250    0.0000 Na  0  3  0  0  0  0  0  0  0  0  0  0
   -1.4625    0.8208    0.0000 Na  0  3  0  0  0  0  0  0  0  0  0  0
    2.4667    0.3208    0.0000 Na  0  3  0  0  0  0  0  0  0  0  0  0
    3.3417   -7.3625    0.0000 Na  0  3  0  0  0  0  0  0  0  0  0  0
   -2.7083   -5.9875    0.0000 Na  0  3  0  0  0  0  0  0  0  0  0  0
    5.0875   -2.1292    0.0000 C   0  0  0  0  0  0  0  0  0  0  0  0
    2.2125   -3.7625    0.0000 H   0  0  0  0  0  0  0  0  0  0  0  0
  2  1  1  0  0  0  0
  3  4  1  0  0  0  0
  4 14  1  0  0  0  0
  5 19  1  0  0  0  0
  6 20  1  0  0  0  0
  7 21  1  0  0  0  0
  8  1  1  0  0  0  0
  9 25  1  0  0  0  0
 10 24  1  0  0  0  0
 11  3  1  0  0  0  0
 12  4  1  0  0  0  0
 13  8  1  0  0  0  0
  8 14  1  6  0  0  0
 15  2  1  0  0  0  0
 16 13  1  0  0  0  0
 17 12  1  0  0  0  0
 18 17  1  0  0  0  0
  1 19  1  1  0  0  0
  2 20  1  6  0  0  0
  3 21  1  6  0  0  0
 13 22  1  1  0  0  0
 17 23  1  1  0  0  0
 24 23  1  0  0  0  0
 25 22  1  0  0  0  0
 26  7  1  0  0  0  0
 27  5  1  0  0  0  0
 28  6  1  0  0  0  0
 29  9  1  0  0  0  0
 30 10  1  0  0  0  0
 31  7  2  0  0  0  0
 32  7  2  0  0  0  0
 33  5  2  0  0  0  0
 34  5  2  0  0  0  0
 35  6  2  0  0  0  0
 36  6  2  0  0  0  0
 37  9  2  0  0  0  0
 38 10  2  0  0  0  0
 39 10  2  0  0  0  0
 40  9  2  0  0  0  0
 11 41  1  1  0  0  0
 18 42  1  1  0  0  0
 15 43  1  1  0  0  0
 49 43  1  0  0  0  0
  4 50  1  1  0  0  0
 16 15  1  0  0  0  0
 11 18  1  0  0  0  0
M  CHG  8  26  -1  27  -1  28  -1  29  -1  30  -1  44   1  45   1  46   1
M  CHG  2  47   1  48   1
M  END