
  SciTegic01091216402D

 25 27  0  0  0  0            999 V2000
    4.2670   -3.3471    0.0000 C   0  0
    4.6739   -4.0648    0.0000 C   0  0
    5.4947   -4.0689    0.0000 C   0  0
    5.9127   -3.3625    0.0000 O   0  0
    5.5058   -2.6448    0.0000 C   0  0
    4.6809   -2.6335    0.0000 C   0  0
    2.9592   -3.0706    0.0000 N   0  0
    3.0443   -3.8927    0.0000 N   0  0
    3.8512   -4.0653    0.0000 C   0  0
    3.7122   -2.7383    0.0000 C   0  0
    2.2460   -2.6607    0.0000 C   0  0
    1.5317   -3.0734    0.0000 N   0  0
    2.2450   -1.8345    0.0000 N   0  0
    2.9594   -1.4218    0.0000 C   0  0
    3.6747   -1.8353    0.0000 C   0  0
    0.8158   -2.6558    0.0000 S   0  0
    1.2262   -1.9467    0.0000 O   0  0
    0.1042   -3.0755    0.0000 C   0  0
    0.1125   -3.9004    0.0000 C   0  0
   -0.5950   -4.3201    0.0000 C   0  0
   -1.3150   -3.9149    0.0000 C   0  0
   -1.3233   -3.0899    0.0000 C   0  0
   -0.6117   -2.6702    0.0000 C   0  0
   -0.5866   -5.1451    0.0000 Cl  0  0
    0.2250   -2.0667    0.0000 O   0  0
  4  5  1  0
  5  6  1  0
  1  2  1  0
  1  6  1  0
  2  3  1  0
  7  8  1  0
  8  9  2  0
  9  1  1  0
  1 10  1  0
  7 10  1  0
 11 12  2  0
 11 13  1  0
  7 11  1  0
 14 15  1  0
 13 14  1  0
 16 17  2  0
 18 19  1  0
 19 20  2  0
 20 21  1  0
 21 22  2  0
 22 23  1  0
 18 23  2  0
 16 18  1  0
 20 24  1  0
 12 16  1  0
  3  4  1  0
 16 25  2  0
M  END