
          11280715162D 1   1.00000     0.00000     0

 29 31  0     0  0            999 V2000
    5.5292   -7.3125    0.0000 N   0  0  3  0  0  0           0  0  0
    6.9542   -9.7917    0.0000 S   0  0  3  0  0  0           0  0  0
    6.2417   -6.8917    0.0000 C   0  0  0  0  0  0           0  0  0
    6.2417   -6.0667    0.0000 C   0  0  0  0  0  0           0  0  0
    4.8167   -6.0667    0.0000 C   0  0  0  0  0  0           0  0  0
    4.8167   -6.8917    0.0000 C   0  0  0  0  0  0           0  0  0
    7.7500  -10.0042    0.0000 C   0  0  0  0  0  0           0  0  0
    4.1042   -7.3042    0.0000 C   0  0  0  0  0  0           0  0  0
    6.7375  -10.5875    0.0000 O   0  0  0  0  0  0           0  0  0
    7.1667   -8.9917    0.0000 O   0  0  0  0  0  0           0  0  0
    6.2375   -9.3750    0.0000 N   0  0  0  0  0  0           0  0  0
    4.1042   -5.6542    0.0000 C   0  0  0  0  0  0           0  0  0
    1.9625   -4.4167    0.0000 C   0  0  0  0  0  0           0  0  0
    1.2500   -4.8292    0.0000 O   0  0  0  0  0  0           0  0  0
    5.5292   -8.1375    0.0000 C   0  0  0  0  0  0           0  0  0
    6.2417   -8.5500    0.0000 C   0  0  0  0  0  0           0  0  0
    7.9542  -10.8000    0.0000 C   0  0  0  0  0  0           0  0  0
    8.3250   -9.4167    0.0000 C   0  0  0  0  0  0           0  0  0
    3.3917   -6.0667    0.0000 C   0  0  0  0  0  0           0  0  0
    3.3917   -6.8917    0.0000 C   0  0  0  0  0  0           0  0  0
    2.6792   -4.8292    0.0000 C   0  0  0  0  0  0           0  0  0
    6.9625   -7.3042    0.0000 C   0  0  0  0  0  0           0  0  0
    9.3375  -10.4250    0.0000 C   0  0  0  0  0  0           0  0  0
    6.8292   -5.4875    0.0000 C   0  0  0  0  0  0           0  0  0
    1.9625   -3.5917    0.0000 O   0  0  0  0  0  0           0  0  0
    8.7542  -11.0042    0.0000 C   0  0  0  0  0  0           0  0  0
    9.1167   -9.6292    0.0000 C   0  0  0  0  0  0           0  0  0
   10.1292  -10.6375    0.0000 F   0  0  0  0  0  0           0  0  0
    2.6792   -5.6542    0.0000 C   0  0  0  0  0  0           0  0  0
  2 11  1  0     0  0
  3  1  1  0     0  0
  4  3  2  0     0  0
  5  6  1  0     0  0
  6  1  1  0     0  0
  7  2  1  0     0  0
  8  6  2  0     0  0
  9  2  2  0     0  0
 10  2  2  0     0  0
 11 16  1  0     0  0
 12  5  2  0     0  0
 13 21  1  0     0  0
 14 13  2  0     0  0
 15  1  1  0     0  0
 16 15  1  0     0  0
 17  7  2  0     0  0
 18  7  1  0     0  0
 19 20  2  0     0  0
 20  8  1  0     0  0
 21 29  1  0     0  0
 22  3  1  0     0  0
 23 27  1  0     0  0
 24  4  1  0     0  0
 25 13  1  0     0  0
 26 17  1  0     0  0
 27 18  2  0     0  0
 28 23  1  0     0  0
 29 19  1  0     0  0
  4  5  1  0     0  0
 19 12  1  0     0  0
 23 26  2  0     0  0
M  END