
          11280715142D 1   1.00000     0.00000     0

 38 42  0     1  0            999 V2000
    1.7125   -3.6375    0.0000 C   0  0  2  0  0  0           0  0  0
    2.1167   -4.3500    0.0000 C   0  0  1  0  0  0           0  0  0
    1.6917   -1.7667    0.0000 N   0  0  3  0  0  0           0  0  0
    1.0542   -3.1250    0.0000 C   0  0  0  0  0  0           0  0  0
    1.0542   -2.2917    0.0000 C   0  0  0  0  0  0           0  0  0
    1.9167   -5.8542    0.0000 C   0  0  0  0  0  0           0  0  0
    2.5167   -3.4417    0.0000 N   0  0  0  0  0  0           0  0  0
    2.5042   -1.9500    0.0000 C   0  0  0  0  0  0           0  0  0
    2.9167   -4.5625    0.0000 C   0  0  0  0  0  0           0  0  0
    1.7042   -5.0625    0.0000 O   0  0  0  0  0  0           0  0  0
    1.3292   -6.4375    0.0000 N   0  0  0  0  0  0           0  0  0
    2.7042   -6.0667    0.0000 N   0  0  0  0  0  0           0  0  0
    2.8750   -2.6917    0.0000 C   0  0  0  0  0  0           0  0  0
    1.4417   -0.9792    0.0000 C   0  0  0  0  0  0           0  0  0
    1.1250   -4.2167    0.0000 C   0  0  0  0  0  0           0  0  0
    2.9167   -6.8542    0.0000 C   0  0  0  0  0  0           0  0  0
    1.5417   -7.2292    0.0000 C   0  0  0  0  0  0           0  0  0
    2.3375   -7.4417    0.0000 C   0  0  0  0  0  0           0  0  0
    3.0125   -1.3000    0.0000 O   0  0  0  0  0  0           0  0  0
    3.1292   -5.3542    0.0000 O   0  0  0  0  0  0           0  0  0
    3.7125   -4.3417    0.0000 O   0  0  0  0  0  0           0  0  0
    0.3375   -3.5375    0.0000 C   0  0  0  0  0  0           0  0  0
    1.9917   -0.3750    0.0000 C   0  0  0  0  0  0           0  0  0
    0.3375   -1.8792    0.0000 C   0  0  0  0  0  0           0  0  0
    1.3292   -5.0167    0.0000 C   0  0  0  0  0  0           0  0  0
    0.3250   -3.9917    0.0000 C   0  0  0  0  0  0           0  0  0
    0.9542   -7.8167    0.0000 C   0  0  0  0  0  0           0  0  0
    3.7167   -7.0667    0.0000 C   0  0  0  0  0  0           0  0  0
    2.8000   -0.5500    0.0000 C   0  0  0  0  0  0           0  0  0
    1.7417    0.4083    0.0000 C   0  0  0  0  0  0           0  0  0
   -0.3750   -3.1250    0.0000 C   0  0  0  0  0  0           0  0  0
   -0.3750   -2.3000    0.0000 C   0  0  0  0  0  0           0  0  0
   -0.2625   -4.5667    0.0000 C   0  0  0  0  0  0           0  0  0
    0.7375   -5.5917    0.0000 C   0  0  0  0  0  0           0  0  0
    2.2917    1.0208    0.0000 C   0  0  0  0  0  0           0  0  0
    3.3542    0.0583    0.0000 C   0  0  0  0  0  0           0  0  0
   -0.0583   -5.3667    0.0000 C   0  0  0  0  0  0           0  0  0
    3.1042    0.8458    0.0000 C   0  0  0  0  0  0           0  0  0
  2  1  1  0     0  0
  3  5  1  0     0  0
  4  1  1  0     0  0
  5  4  1  0     0  0
  6 10  1  0     0  0
  7  1  1  0     0  0
  8 13  1  0     0  0
  9  2  1  0     0  0
  2 10  1  1     0  0
 11  6  2  0     0  0
 12  6  1  0     0  0
 13  7  1  0     0  0
 14  3  1  0     0  0
  1 15  1  1     0  0
 16 12  2  0     0  0
 17 11  1  0     0  0
 18 16  1  0     0  0
 19  8  2  0     0  0
 20  9  2  0     0  0
 21  9  1  0     0  0
 22  4  2  0     0  0
 23 14  1  0     0  0
 24  5  2  0     0  0
 25 15  1  0     0  0
 26 15  2  0     0  0
 27 17  1  0     0  0
 28 16  1  0     0  0
 29 23  2  0     0  0
 30 23  1  0     0  0
 31 22  1  0     0  0
 32 31  2  0     0  0
 33 26  1  0     0  0
 34 25  2  0     0  0
 35 30  2  0     0  0
 36 29  1  0     0  0
 37 33  2  0     0  0
 38 35  1  0     0  0
  3  8  1  0     0  0
 37 34  1  0     0  0
 24 32  1  0     0  0
 17 18  2  0     0  0
 36 38  2  0     0  0
M  END