
  SciTegic04191613082D

166175  0  0  1  0            999 V2000
   13.1831    9.4509    0.0000 C   0  0
   14.2202   10.5347    0.0000 C   0  0  2  0  0  0
   15.4542   11.3876    0.0000 C   0  0
   16.8346   11.9745    0.0000 N   0  0
   18.3048   12.2716    0.0000 C   0  0
   19.8048   12.2667    0.0000 C   0  0
   21.2731   11.9599    0.0000 C   0  0
   22.6496   11.3638    0.0000 C   0  0
   23.8779   10.5028    0.0000 C   0  0
   24.9078    9.4122    0.0000 N   0  0
   25.6970    8.1366    0.0000 C   0  0
   26.2133    6.7283    0.0000 C   0  0  2  0  0  0
   26.4355    5.2448    0.0000 N   0  0
   26.3546    3.7470    0.0000 C   0  0
   25.9738    2.2962    0.0000 C   0  0  1  0  0  0
   25.3088    0.9516    0.0000 N   0  0
   24.3867   -0.2315    0.0000 C   0  0
   25.2537   -1.0611    0.0000 O   0  0
   23.2454   -1.2048    0.0000 C   0  0  1  0  0  0
   21.9315   -1.9284    0.0000 N   0  0
   20.4988   -2.3727    0.0000 C   0  0
   20.7364   -3.5489    0.0000 O   0  0
   19.0060   -2.5195    0.0000 C   0  0  1  0  0  0
   17.5142   -2.3628    0.0000 N   0  0
   16.0845   -1.9091    0.0000 C   0  0
   14.7754   -1.1768    0.0000 C   0  0  2  0  0  0
   13.9096   -2.4171    0.0000 C   0  0
   12.4142   -2.2893    0.0000 C   0  0
   11.5551   -3.5200    0.0000 C   0  0
   12.1905   -4.8797    0.0000 N   0  0
   11.3314   -6.1103    0.0000 C   0  0
   10.1358   -6.0071    0.0000 N   0  0
   11.8394   -7.1975    0.0000 N   0  0
   13.6404   -0.1960    0.0000 N   0  0
   12.7262    0.9932    0.0000 C   0  0
   12.0701    2.3421    0.0000 C   0  0  1  0  0  0
   11.6989    3.7954    0.0000 N   0  0
   11.6279    5.2938    0.0000 C   0  0
   11.8599    6.7757    0.0000 C   0  0  2  0  0  0
   10.3541    6.6332    0.0000 C   0  0
    9.4838    7.8560    0.0000 C   0  0
    7.9902    7.7168    0.0000 C   0  0
    7.1229    8.9407    0.0000 C   0  0
    7.7491   10.3037    0.0000 C   0  0
    9.2427   10.4429    0.0000 C   0  0
   10.1100    9.2191    0.0000 C   0  0
   12.3855    8.1806    0.0000 N   0  0
   10.4296    5.3585    0.0000 O   0  0
   11.3194    1.0290    0.0000 C   0  0
    9.8186    1.0216    0.0000 C   0  0
    9.0732   -0.2772    0.0000 C   0  0
    7.5603   -0.2709    0.0000 C   0  0
    6.8096    1.0243    0.0000 C   0  0
    5.3126    1.0216    0.0000 C   0  0
    4.5619    2.3168    0.0000 C   0  0
    5.3082    3.6148    0.0000 C   0  0
    6.8053    3.6176    0.0000 C   0  0
    7.5560    2.3223    0.0000 C   0  0
    9.0530    2.3251    0.0000 C   0  0
   11.7057    0.3618    0.0000 O   0  0
   15.6076   -3.0103    0.0000 O   0  0
   19.5214   -3.9416    0.0000 C   0  0
   20.8196   -4.6946    0.0000 C   0  0
   20.8176   -6.1954    0.0000 C   0  0
   22.1158   -6.9484    0.0000 N   0  0
   22.1138   -8.4492    0.0000 C   0  0
   21.0736   -9.0475    0.0000 N   0  0
   23.1518   -9.0513    0.0000 N   0  0
   24.1078   -2.4474    0.0000 C   0  0
   25.6035   -2.3238    0.0000 C   0  0
   26.4592   -3.5568    0.0000 C   0  0
   27.9549   -3.4332    0.0000 N   0  0
   28.8106   -4.6661    0.0000 C   0  0
   30.0065   -4.5673    0.0000 N   0  0
   28.2986   -5.7514    0.0000 N   0  0
   27.3915    1.7689    0.0000 C   0  0
   28.5485    2.7248    0.0000 C   0  0
   29.9552    2.2017    0.0000 C   0  0
   31.1123    3.1576    0.0000 N   0  0
   32.5190    2.6344    0.0000 C   0  0
   33.4441    3.3988    0.0000 N   0  0
   32.7187    1.4512    0.0000 N   0  0
   27.5402    3.5614    0.0000 O   0  0
   27.6795    7.0997    0.0000 C   0  0
   28.0056    8.2546    0.0000 O   0  0
   28.7268    6.0247    0.0000 N   0  0
   30.1817    6.3933    0.0000 C   0  0  2  0  0  0
   30.5925    7.8368    0.0000 C   0  0
   31.7561    8.1302    0.0000 O   0  0
   29.7569    8.6981    0.0000 O   0  0
   31.2290    5.3182    0.0000 C   0  0
   32.6839    5.6868    0.0000 C   0  0
   33.7311    4.6118    0.0000 C   0  0
   35.1860    4.9803    0.0000 C   0  0
   36.0234    4.1208    0.0000 N   0  0
   24.6626   11.4107    0.0000 O   0  0
   21.9513    9.8025    0.0000 C   0  0
   20.4862    9.4806    0.0000 C   0  0
   19.4750   10.5884    0.0000 C   0  0
   22.7585    8.5851    0.0000 C   0  0
   23.5705    9.4687    0.0000 O   0  0
   23.4242    7.2410    0.0000 N   0  0
   24.7001    8.0457    0.0000 C   0  0
   25.8550    7.0885    0.0000 C   0  0
   25.3015    5.6943    0.0000 C   0  0
   23.7959    5.7877    0.0000 C   0  0  1  0  0  0
   23.8573    4.2890    0.0000 C   0  0
   25.0548    4.2125    0.0000 O   0  0
   23.6057    2.8102    0.0000 N   0  0
   23.0522    1.4161    0.0000 C   0  0
   22.2209    0.1675    0.0000 C   0  0
   21.1482   -0.8810    0.0000 N   0  0
   19.8810   -1.6835    0.0000 C   0  0  1  0  0  0
   18.4746   -2.2051    0.0000 C   0  0
   18.7719   -3.3677    0.0000 O   0  0
   16.9905   -2.4228    0.0000 N   0  0
   17.6555   -3.7768    0.0000 C   0  0
   16.8243   -5.0254    0.0000 C   0  0
   15.3273   -4.9298    0.0000 C   0  0
   14.6616   -3.5856    0.0000 C   0  0
   15.4935   -2.3272    0.0000 C   0  0  2  0  0  0
   14.0492   -1.9225    0.0000 C   0  0
   12.7205   -1.2263    0.0000 N   0  0
   11.5656   -0.2691    0.0000 C   0  0  1  0  0  0
   11.4195   -1.7744    0.0000 C   0  0
   10.0538   -2.3966    0.0000 C   0  0
    8.8327   -1.5296    0.0000 C   0  0
    7.4617   -2.1693    0.0000 C   0  0
    7.3228   -3.6599    0.0000 C   0  0
    5.9623   -4.2846    0.0000 C   0  0
    5.8234   -5.7752    0.0000 C   0  0
    7.0450   -6.6411    0.0000 C   0  0
    8.4054   -6.0163    0.0000 C   0  0
    8.5443   -4.5257    0.0000 C   0  0
    9.9048   -3.9009    0.0000 C   0  0
   10.6350    0.9074    0.0000 C   0  0
    9.6212    0.2653    0.0000 O   0  0
    9.9693    2.2516    0.0000 N   0  0
    9.5977    3.7048    0.0000 C   0  0  2  0  0  0
    9.5363    5.2035    0.0000 C   0  0
    9.7878    6.6823    0.0000 N   0  0
   10.3413    8.0764    0.0000 C   0  0  1  0  0  0
    9.2784    8.6334    0.0000 C   0  0
   11.1726    9.3250    0.0000 C   0  0
   10.2487   10.0908    0.0000 O   0  0
   12.2453   10.3735    0.0000 N   0  0
    8.3387    5.2800    0.0000 O   0  0
    8.1016    3.4823    0.0000 C   0  0
    7.1675    4.6570    0.0000 C   0  0
    5.6830    4.4363    0.0000 C   0  0
    4.7489    5.6110    0.0000 N   0  0
    3.2644    5.3903    0.0000 C   0  0
    2.8241    4.2740    0.0000 N   0  0
    2.5175    6.3296    0.0000 N   0  0
   13.6064   -3.0378    0.0000 O   0  0
   20.0511   -3.1864    0.0000 C   0  0
   21.4266   -3.7868    0.0000 C   0  0
   21.5616   -4.9791    0.0000 O   0  0
   22.3920   -3.0740    0.0000 O   0  0
   23.1448   -0.5983    0.0000 O   0  0
   24.7612    2.4864    0.0000 C   0  0
   18.1874   13.4659    0.0000 O   0  0
   12.2366   10.1886    0.0000 O   0  0
   14.5565   -2.6764    0.0000 H   0  0
   24.4955    5.0732    0.0000 H   0  0
   13.3174   10.1048    0.0000 H   0  0
  2  1  1  0
  2  3  1  0
  3  4  1  0
  5  4  1  0
  6  5  1  0
  7  6  1  0
  8  7  2  0
  8  9  1  0
  9 10  1  0
 10 11  1  0
 12 11  1  0
 12 13  1  0
 13 14  1  0
 14 15  1  0
 15 16  1  0
 16 17  1  0
 17 18  2  0
 17 19  1  0
 19 20  1  0
 21 20  1  0
 21 22  2  0
 23 21  1  0
 24 23  1  0
 25 24  1  0
 26 25  1  0
 26 27  1  6
 27 28  1  0
 28 29  1  0
 29 30  1  0
 30 31  1  0
 31 32  1  0
 31 33  2  0
 34 26  1  0
 35 34  1  0
 36 35  1  0
 37 36  1  0
 38 37  1  0
 39 38  1  0
 39 40  1  6
 40 41  1  0
 41 42  2  0
 42 43  1  0
 43 44  2  0
 44 45  1  0
 45 46  2  0
 46 41  1  0
 47 39  1  0
  1 47  1  0
 38 48  2  0
 36 49  1  6
 49 50  1  0
 51 50  1  0
 52 51  2  0
 53 52  1  0
 54 53  2  0
 55 54  1  0
 56 55  2  0
 57 56  1  0
 58 57  2  0
 53 58  1  0
 59 58  1  0
 50 59  2  0
 35 60  2  0
 25 61  2  0
 23 62  1  6
 62 63  1  0
 63 64  1  0
 64 65  1  0
 65 66  1  0
 66 67  1  0
 66 68  2  0
 19 69  1  6
 69 70  1  0
 70 71  1  0
 71 72  1  0
 72 73  1  0
 73 74  2  0
 73 75  1  0
 15 76  1  6
 76 77  1  0
 77 78  1  0
 78 79  1  0
 79 80  1  0
 80 81  2  0
 80 82  1  0
 14 83  2  0
 12 84  1  1
 84 85  2  0
 84 86  1  0
 87 86  1  6
 87 88  1  0
 88 89  2  0
 88 90  1  0
 87 91  1  0
 91 92  1  0
 92 93  1  0
 93 94  1  0
 94 95  1  0
  9 96  2  0
 97  8  1  0
 98 97  2  0
 99 98  1  0
  6 99  2  0
100 98  1  0
100101  2  0
102100  1  0
103102  1  0
104103  1  0
105104  1  0
106105  1  0
106107  1  0
107108  2  0
109107  1  0
110109  1  0
111110  1  0
112111  1  0
113112  1  0
114113  1  0
114115  2  0
116114  1  0
117116  1  0
118117  1  0
119118  1  0
120119  1  0
121120  1  0
121116  1  0
121122  1  0
123122  1  0
124123  1  0
124125  1  1
125126  1  0
127126  1  0
128127  2  0
129128  1  0
130129  2  0
131130  1  0
132131  2  0
133132  1  0
134133  2  0
135134  1  0
126135  2  0
129134  1  0
124136  1  0
136137  2  0
136138  1  0
138139  1  0
139140  1  0
140141  1  0
141142  1  0
142143  1  1
142144  1  0
144145  2  0
144146  1  0
  2146  1  0
140147  2  0
139148  1  1
148149  1  0
149150  1  0
150151  1  0
151152  1  0
152153  1  0
152154  2  0
122155  2  0
113156  1  6
156157  1  0
157158  2  0
157159  1  0
111160  2  0
109161  1  0
102106  1  0
  5162  2  0
  1163  2  0
121164  1  1
106165  1  6
  2166  1  6
M  END