
  SciTegic12231509382D

 29 32  0  0  0  0            999 V2000
   -4.8715    0.9582    0.0000 C   0  0
   -4.8726    0.1310    0.0000 C   0  0
   -4.1578   -0.2819    0.0000 C   0  0
   -4.1596    1.3709    0.0000 C   0  0
   -3.4444    0.9618    0.0000 C   0  0
   -3.4456    0.1335    0.0000 C   0  0
   -2.7328   -0.2794    0.0000 C   0  0
   -2.0142    0.1315    0.0000 C   0  0
   -2.0130    0.9598    0.0000 C   0  0
   -2.7305    1.3773    0.0000 N   0  0
   -2.7352   -1.1042    0.0000 C   0  0
   -3.4506   -1.5147    0.0000 O   0  0
   -2.0218   -1.5187    0.0000 N   0  0
   -2.0241   -2.3435    0.0000 C   0  0  1  0  0  0
   -1.3110   -2.7580    0.0000 C   0  0
   -2.7398   -2.7540    0.0000 C   0  0
   -3.4516   -2.3361    0.0000 C   0  0
   -4.1715   -3.5682    0.0000 C   0  0
   -3.4585   -3.9849    0.0000 C   0  0
   -4.1649   -2.7431    0.0000 C   0  0
   -2.7390   -3.5762    0.0000 C   0  0
   -1.3133   -3.5828    0.0000 C   0  0
   -1.3011   -0.2830    0.0000 O   0  0
   -1.2977    1.3706    0.0000 C   0  0
   -0.5817    0.9499    0.0000 C   0  0
    0.1377    2.1823    0.0000 C   0  0
   -0.5755    2.5987    0.0000 C   0  0
    0.1314    1.3572    0.0000 C   0  0
   -1.2950    2.1898    0.0000 C   0  0
 13 14  1  0
  1  2  2  0
 14 15  1  1
  5  4  2  0
 14 16  1  0
 16 17  2  0
  4  1  1  0
 18 19  1  0
  5 10  1  0
  6  7  1  0
  7  8  2  0
  8  9  1  0
 16 21  1  0
 17 20  1  0
 20 18  2  0
 19 21  2  0
  9 10  2  0
 15 22  1  0
  5  6  1  0
  8 23  1  0
  7 11  1  0
  9 24  1  0
 24 25  2  0
 26 27  1  0
 11 12  2  0
  2  3  1  0
 11 13  1  0
  3  6  2  0
 24 29  1  0
 25 28  1  0
 28 26  2  0
 27 29  2  0
M  END