
  SciTegic09171211542D

 44 49  0  0  0  0            999 V2000
    7.0543  -17.9108    0.0000 C   0  0
    7.0531  -18.7381    0.0000 C   0  0
    7.7679  -19.1510    0.0000 C   0  0
    8.4844  -18.7377    0.0000 C   0  0
    8.4815  -17.9071    0.0000 C   0  0
    7.7661  -17.4980    0.0000 C   0  0
   10.6243  -17.4913    0.0000 N   0  0
   11.3394  -17.9027    0.0000 C   0  0
   12.0532  -17.4890    0.0000 C   0  0
   11.3407  -18.7277    0.0000 O   0  0
   12.7670  -17.9018    0.0000 C   0  0
   12.7594  -16.2518    0.0000 C   0  0
   12.0490  -16.6670    0.0000 C   0  0
   12.7552  -15.4268    0.0000 C   0  0
   13.4795  -16.6630    0.0000 C   0  0
   13.4818  -17.4875    0.0000 C   0  0
   14.2659  -17.7400    0.0000 N   0  0
   14.7495  -17.0717    0.0000 C   0  0
   14.2630  -16.4061    0.0000 N   0  0
   15.5745  -17.0694    0.0000 C   0  0
   15.9850  -16.3538    0.0000 C   0  0
   16.8100  -16.3515    0.0000 C   0  0
   14.2678  -18.5650    0.0000 C   0  0
   14.9832  -18.9759    0.0000 C   0  0
   14.9803  -19.8002    0.0000 C   0  0
   15.6948  -20.2110    0.0000 C   0  0
   16.4093  -19.7968    0.0000 C   0  0
   16.4048  -18.9676    0.0000 C   0  0
   15.6896  -18.5605    0.0000 C   0  0
   17.1236  -20.2041    0.0000 C   0  0
   17.1252  -21.0303    0.0000 C   0  0
   17.8403  -21.4401    0.0000 C   0  0
   18.5543  -21.0249    0.0000 C   0  0
   18.5486  -20.1957    0.0000 C   0  0
   17.8329  -19.7896    0.0000 C   0  0
   17.8277  -18.9646    0.0000 C   0  0
   18.4882  -18.4754    0.0000 N   0  0
   18.2283  -17.6924    0.0000 N   0  0
   17.4033  -17.6976    0.0000 N   0  0
   17.1535  -18.4839    0.0000 N   0  0
    9.9105  -17.9049    0.0000 C   0  0
    9.1953  -17.4935    0.0000 C   0  0
    7.7677  -19.9760    0.0000 O   0  0
    7.0532  -20.3883    0.0000 C   0  0
  9 11  2  0
 21 22  1  0
 11 16  1  0
 17 23  1  0
  5  6  2  0
 23 24  1  0
 15 12  1  0
 24 25  2  0
  6  1  1  0
 25 26  1  0
 12 13  2  0
 26 27  2  0
 13  9  1  0
 27 28  1  0
  1  2  2  0
 28 29  2  0
 29 24  1  0
 12 14  1  0
 15 16  2  0
 30 31  2  0
  3  4  2  0
 31 32  1  0
  7  8  1  0
 32 33  2  0
 33 34  1  0
  8  9  1  0
 34 35  2  0
 35 30  1  0
 27 30  1  0
  4  5  1  0
 35 36  1  0
 36 37  1  0
 16 17  1  0
 17 18  1  0
 18 19  2  0
 19 15  1  0
 37 38  1  0
 38 39  2  0
 39 40  1  0
 40 36  2  0
  8 10  2  0
  7 41  1  0
 18 20  1  0
 41 42  1  0
 42  5  1  0
  2  3  1  0
  3 43  1  0
 20 21  1  0
 43 44  1  0
M  END