
          01230816042D 1   1.00000     0.00000     0

 58 61  0     1  0            999 V2000
   -2.2836   -3.8569    0.0000 C   0  0  0  0  0  0           0  0  0
   -1.5671   -3.4435    0.0000 C   0  0  0  0  0  0           0  0  0
   -1.5700   -2.6130    0.0000 C   0  0  0  0  0  0           0  0  0
   -2.2864   -2.2051    0.0000 C   0  0  0  0  0  0           0  0  0
   -0.8575   -2.1971    0.0000 O   0  0  0  0  0  0           0  0  0
   -0.1411   -2.6063    0.0000 C   0  0  0  0  0  0           0  0  0
    0.5715   -2.1904    0.0000 C   0  0  0  0  0  0           0  0  0
    1.2879   -2.5995    0.0000 N   0  0  0  0  0  0           0  0  0
    0.5676   -1.3654    0.0000 O   0  0  0  0  0  0           0  0  0
    2.0004   -2.1836    0.0000 C   0  0  2  0  0  0           0  0  0
    2.7168   -2.5928    0.0000 C   0  0  0  0  0  0           0  0  0
    3.4293   -2.1769    0.0000 N   0  0  0  0  0  0           0  0  0
    2.7207   -3.4178    0.0000 O   0  0  0  0  0  0           0  0  0
    1.9965   -1.3587    0.0000 C   0  0  0  0  0  0           0  0  0
    2.7090   -0.9428    0.0000 C   0  0  0  0  0  0           0  0  0
    2.7051   -0.1178    0.0000 C   0  0  0  0  0  0           0  0  0
    3.4176    0.2981    0.0000 C   0  0  0  0  0  0           0  0  0
    3.4137    1.1231    0.0000 N   0  0  0  0  0  0           0  0  0
    4.1457   -2.5860    0.0000 C   0  0  2  0  0  0           0  0  0
    4.8582   -2.1702    0.0000 C   0  0  0  0  0  0           0  0  0
    4.1496   -3.4110    0.0000 C   0  0  3  0  0  0           0  0  0
    3.4371   -3.8269    0.0000 C   0  0  0  0  0  0           0  0  0
    4.8660   -3.8201    0.0000 C   0  0  0  0  0  0           0  0  0
    5.5746   -2.5793    0.0000 N   0  0  0  0  0  0           0  0  0
    4.8543   -1.3452    0.0000 O   0  0  0  0  0  0           0  0  0
    6.2872   -2.1634    0.0000 C   0  0  0  0  0  0           0  0  0
    7.0036   -2.5725    0.0000 C   0  0  0  0  0  0           0  0  0
    7.7161   -2.1567    0.0000 N   0  0  0  0  0  0           0  0  0
    7.0075   -3.3975    0.0000 O   0  0  0  0  0  0           0  0  0
    8.4325   -2.5658    0.0000 C   0  0  2  0  0  0           0  0  0
    9.1464   -2.1481    0.0000 C   0  0  0  0  0  0           0  0  0
    8.4364   -3.3908    0.0000 C   0  0  1  0  0  0           0  0  0
    7.7239   -3.8067    0.0000 C   0  0  0  0  0  0           0  0  0
    9.1528   -3.7999    0.0000 O   0  0  0  0  0  0           0  0  0
    9.9690   -2.2106    0.0000 N   0  0  3  0  0  0           0  0  0
    9.1411   -1.3249    0.0000 O   0  0  0  0  0  0           0  0  0
   10.4009   -2.9096    0.0000 C   0  0  1  0  0  0           0  0  0
   11.2026   -2.7147    0.0000 C   0  0  0  0  0  0           0  0  0
   11.2651   -1.8920    0.0000 C   0  0  0  0  0  0           0  0  0
   10.5020   -1.5785    0.0000 C   0  0  0  0  0  0           0  0  0
   -2.9984   -3.4440    0.0000 C   0  0  0  0  0  0           0  0  0
   -3.0002   -2.6184    0.0000 C   0  0  0  0  0  0           0  0  0
   -3.7150   -2.2091    0.0000 C   0  0  0  0  0  0           0  0  0
   -4.4284   -2.6241    0.0000 C   0  0  0  0  0  0           0  0  0
   -4.4225   -3.4528    0.0000 C   0  0  0  0  0  0           0  0  0
   -3.7072   -3.8584    0.0000 C   0  0  0  0  0  0           0  0  0
   10.0877   -3.6728    0.0000 C   0  0  0  0  0  0           0  0  0
   10.5921   -4.3257    0.0000 O   0  0  0  0  0  0           0  0  0
   11.4096   -4.2153    0.0000 C   0  0  0  0  0  0           0  0  0
   11.9140   -4.8682    0.0000 N   0  0  0  0  0  0           0  0  0
   11.7229   -3.4521    0.0000 O   0  0  0  0  0  0           0  0  0
   11.6008   -5.6314    0.0000 C   0  0  3  0  0  0           0  0  0
   10.7843   -5.7388    0.0000 C   0  0  0  0  0  0           0  0  0
   10.4706   -6.4979    0.0000 C   0  0  0  0  0  0           0  0  0
   10.9718   -7.1537    0.0000 C   0  0  0  0  0  0           0  0  0
   11.7906   -7.0452    0.0000 C   0  0  0  0  0  0           0  0  0
   12.1082   -6.2809    0.0000 C   0  0  0  0  0  0           0  0  0
   10.9833   -3.4917    0.0000 H   0  0  0  0  0  0           0  0  0
  3  4  2  0     0  0
 31 35  1  0     0  0
 16 17  1  0     0  0
 31 36  2  0     0  0
  7  8  1  0     0  0
 35 37  1  0     0  0
 17 18  1  0     0  0
 12 19  1  0     0  0
  7  9  2  0     0  0
 37 38  1  0     0  0
 38 39  1  0     0  0
 39 40  1  0     0  0
 40 35  1  0     0  0
 19 20  1  0     0  0
 42  4  1  0     0  0
 19 21  1  6     0  0
  8 10  1  0     0  0
 21 22  1  0     0  0
  1  2  2  0     0  0
 21 23  1  0     0  0
 10 11  1  0     0  0
 20 24  1  0     0  0
  3  5  1  0     0  0
 20 25  2  0     0  0
 11 12  1  0     0  0
 24 26  1  0     0  0
 41  1  1  0     0  0
 41 42  1  0     0  0
 26 27  1  0     0  0
 42 43  2  0     0  0
 11 13  2  0     0  0
 43 44  1  0     0  0
 27 28  1  0     0  0
 44 45  2  0     0  0
  5  6  1  0     0  0
 45 46  1  0     0  0
 46 41  2  0     0  0
 37 47  1  0     0  0
 27 29  2  0     0  0
 47 48  1  0     0  0
 10 14  1  1     0  0
 48 49  1  0     0  0
 30 28  1  6     0  0
 49 50  1  0     0  0
  2  3  1  0     0  0
 49 51  2  0     0  0
 30 31  1  0     0  0
 50 52  1  0     0  0
 52 53  1  0     0  0
 14 15  1  0     0  0
 30 32  1  0     0  0
  6  7  1  0     0  0
 32 33  1  0     0  0
 15 16  1  0     0  0
 52 57  1  0     0  0
 53 54  1  0     0  0
 54 55  1  0     0  0
 55 56  1  0     0  0
 56 57  1  0     0  0
 32 34  1  6     0  0
 37 58  1  6     0  0
M  END