
  CDK    12/20/10,14:45

 64 65  0  0  0  0  0  0  0  0999 V2000
    8.3125  -12.9458    0.0000 C   0  0  0  0  0  0  0  0  0  0  0  0
    7.5958  -13.3500    0.0000 C   0  0  0  0  0  0  0  0  0  0  0  0
    8.3167  -12.1167    0.0000 C   0  0  0  0  0  0  0  0  0  0  0  0
    6.8833  -12.9375    0.0000 C   0  0  0  0  0  0  0  0  0  0  0  0
    7.6042  -11.7000    0.0000 C   0  0  0  0  0  0  0  0  0  0  0  0
   -1.6750  -12.9125    0.0000 C   0  0  0  0  0  0  0  0  0  0  0  0
   -1.6750  -12.0833    0.0000 C   0  0  0  0  0  0  0  0  0  0  0  0
   -0.2542  -12.9125    0.0000 C   0  0  0  0  0  0  0  0  0  0  0  0
   -0.9667  -13.3167    0.0000 C   0  0  0  0  0  0  0  0  0  0  0  0
    6.8917  -12.1083    0.0000 C   0  0  0  0  0  0  0  0  0  0  0  0
   -0.9667  -11.6667    0.0000 C   0  0  0  0  0  0  0  0  0  0  0  0
   -0.2542  -12.0833    0.0000 C   0  0  0  0  0  0  0  0  0  0  0  0
    6.1625  -14.1708    0.0000 P   0  0  0  0  0  0  0  0  0  0  0  0
   -3.1042  -12.9125    0.0000 P   0  0  0  0  0  0  0  0  0  0  0  0
    0.4583  -14.1500    0.0000 P   0  0  0  0  0  0  0  0  0  0  0  0
   -2.3958  -10.8500    0.0000 P   0  0  0  0  0  0  0  0  0  0  0  0
    8.3000  -14.5917    0.0000 P   0  0  0  0  0  0  0  0  0  0  0  0
    6.8958  -10.4583    0.0000 P   0  0  0  0  0  0  0  0  0  0  0  0
    9.0375  -10.8875    0.0000 P   0  0  0  0  0  0  0  0  0  0  0  0
    7.5875  -14.1750    0.0000 O   0  0  0  0  0  0  0  0  0  0  0  0
    9.0333  -11.7125    0.0000 O   0  0  0  0  0  0  0  0  0  0  0  0
    9.7417  -12.9542    0.0000 P   0  0  0  0  0  0  0  0  0  0  0  0
    6.1667  -13.3458    0.0000 O   0  0  0  0  0  0  0  0  0  0  0  0
   -2.3917  -13.3250    0.0000 O   0  0  0  0  0  0  0  0  0  0  0  0
   -2.3917  -11.6750    0.0000 O   0  0  0  0  0  0  0  0  0  0  0  0
    7.6083  -10.8750    0.0000 O   0  0  0  0  0  0  0  0  0  0  0  0
    0.4625  -13.3250    0.0000 O   0  0  0  0  0  0  0  0  0  0  0  0
    9.0250  -13.3625    0.0000 O   0  0  0  0  0  0  0  0  0  0  0  0
    3.3208  -11.6833    0.0000 C   0  0  0  0  0  0  0  0  0  0  0  0
   -3.8208  -13.3250    0.0000 O   0  0  0  0  0  0  0  0  0  0  0  0
    6.8750  -14.5875    0.0000 O   0  0  0  0  0  0  0  0  0  0  0  0
    8.3292  -10.4667    0.0000 O   0  0  0  0  0  0  0  0  0  0  0  0
    6.1792  -10.8667    0.0000 O   0  0  0  0  0  0  0  0  0  0  0  0
    9.0167  -14.1875    0.0000 O   0  0  0  0  0  0  0  0  0  0  0  0
   -1.6833  -10.4375    0.0000 O   0  0  0  0  0  0  0  0  0  0  0  0
   -0.2542  -14.5625    0.0000 O   0  0  0  0  0  0  0  0  0  0  0  0
    3.3250  -10.8583    0.0000 O   0  0  0  0  0  0  0  0  0  0  0  0
    2.6042  -12.0958    0.0000 N   0  0  0  0  0  0  0  0  0  0  0  0
    4.0333  -12.1000    0.0000 N   0  0  0  0  0  0  0  0  0  0  0  0
    9.8208  -10.6292    0.0000 O   0  0  0  0  0  0  0  0  0  0  0  0
    9.2083  -10.0750    0.0000 O   0  0  0  0  0  0  0  0  0  0  0  0
   -2.8083  -10.1333    0.0000 O   0  0  0  0  0  0  0  0  0  0  0  0
    5.4333  -13.7750    0.0000 O   0  0  0  0  0  0  0  0  0  0  0  0
    7.8875  -15.3083    0.0000 O   0  0  0  0  0  0  0  0  0  0  0  0
   -3.5125  -12.1958    0.0000 O   0  0  0  0  0  0  0  0  0  0  0  0
    8.7125  -15.3083    0.0000 O   0  0  0  0  0  0  0  0  0  0  0  0
   -2.6875  -12.2000    0.0000 O   0  0  0  0  0  0  0  0  0  0  0  0
    5.5750  -14.7542    0.0000 O   0  0  0  0  0  0  0  0  0  0  0  0
    0.8833  -14.8583    0.0000 O   0  0  0  0  0  0  0  0  0  0  0  0
    6.4917   -9.7375    0.0000 O   0  0  0  0  0  0  0  0  0  0  0  0
   -3.2208  -10.8500    0.0000 O   0  0  0  0  0  0  0  0  0  0  0  0
    7.3167   -9.7458    0.0000 O   0  0  0  0  0  0  0  0  0  0  0  0
    1.2875  -14.1375    0.0000 O   0  0  0  0  0  0  0  0  0  0  0  0
   -0.9667  -14.1417    0.0000 O   0  0  0  0  0  0  0  0  0  0  0  0
   -0.9667  -10.8417    0.0000 O   0  0  0  0  0  0  0  0  0  0  0  0
    6.1792  -11.6917    0.0000 O   0  0  0  0  0  0  0  0  0  0  0  0
    0.4625  -11.6750    0.0000 O   0  0  0  0  0  0  0  0  0  0  0  0
    9.3625  -12.2208    0.0000 O   0  0  0  0  0  0  0  0  0  0  0  0
   10.1875  -12.2583    0.0000 O   0  0  0  0  0  0  0  0  0  0  0  0
   10.4542  -13.3708    0.0000 O   0  0  0  0  0  0  0  0  0  0  0  0
    1.8917  -11.6792    0.0000 C   0  0  0  0  0  0  0  0  0  0  0  0
    4.7500  -11.6875    0.0000 C   0  0  0  0  0  0  0  0  0  0  0  0
    1.1750  -12.0917    0.0000 C   0  0  0  0  0  0  0  0  0  0  0  0
    5.4625  -12.1042    0.0000 C   0  0  0  0  0  0  0  0  0  0  0  0
  2  1  1  0  0  0  0 
  3  1  1  0  0  0  0 
  4  2  1  0  0  0  0 
  5  3  1  0  0  0  0 
  6  7  1  0  0  0  0 
  7 11  1  0  0  0  0 
  8 12  1  0  0  0  0 
  9  8  1  0  0  0  0 
 10  5  1  0  0  0  0 
 11 12  1  0  0  0  0 
 12 57  1  1  0  0  0 
 13 23  1  0  0  0  0 
 14 24  1  0  0  0  0 
 15 27  1  0  0  0  0 
 16 25  1  0  0  0  0 
 17 20  1  0  0  0  0 
 18 26  1  0  0  0  0 
 19 21  1  0  0  0  0 
  2 20  1  6  0  0  0 
  3 21  1  6  0  0  0 
 22 28  1  0  0  0  0 
  4 23  1  1  0  0  0 
  6 24  1  1  0  0  0 
  7 25  1  6  0  0  0 
  5 26  1  1  0  0  0 
  8 27  1  1  0  0  0 
  1 28  1  1  0  0  0 
 29 39  1  0  0  0  0 
 30 14  2  0  0  0  0 
 31 13  2  0  0  0  0 
 32 19  2  0  0  0  0 
 33 18  2  0  0  0  0 
 34 17  2  0  0  0  0 
 35 16  2  0  0  0  0 
 36 15  2  0  0  0  0 
 37 29  2  0  0  0  0 
 38 29  1  0  0  0  0 
 39 62  1  0  0  0  0 
 40 19  1  0  0  0  0 
 41 19  1  0  0  0  0 
 42 16  1  0  0  0  0 
 43 13  1  0  0  0  0 
 44 17  1  0  0  0  0 
 45 14  1  0  0  0  0 
 46 17  1  0  0  0  0 
 47 14  1  0  0  0  0 
 48 13  1  0  0  0  0 
 49 15  1  0  0  0  0 
 50 18  1  0  0  0  0 
 51 16  1  0  0  0  0 
 52 18  1  0  0  0  0 
 53 15  1  0  0  0  0 
  9 54  1  6  0  0  0 
 11 55  1  1  0  0  0 
 10 56  1  1  0  0  0 
 57 63  1  0  0  0  0 
 58 22  1  0  0  0  0 
 59 22  1  0  0  0  0 
 60 22  1  0  0  0  0 
 61 38  1  0  0  0  0 
 62 64  1  0  0  0  0 
 63 61  1  0  0  0  0 
 64 56  1  0  0  0  0 
  4 10  1  0  0  0  0 
  9  6  1  0  0  0  0 
M  END