
  SciTegic04191613082D

174183  0  0  1  0            999 V2000
   -6.3770    4.5339    0.0000 C   0  0
   -7.3838    5.1869    0.0000 O   0  0
   -7.0704    3.2038    0.0000 N   0  0
   -7.4820    1.7614    0.0000 C   0  0  2  0  0  0
   -7.5947    0.2656    0.0000 C   0  0
   -8.7943    0.2343    0.0000 O   0  0
   -7.4040   -1.2222    0.0000 N   0  0
   -6.9178   -2.6412    0.0000 C   0  0  2  0  0  0
   -6.1558   -3.9333    0.0000 C   0  0
   -7.1225   -4.6443    0.0000 O   0  0
   -5.1494   -5.0455    0.0000 N   0  0
   -3.9397   -5.9324    0.0000 C   0  0  1  0  0  0
   -4.7085   -7.2350    0.0000 C   0  0
   -3.9714   -8.5423    0.0000 C   0  0
   -4.2462  -10.0178    0.0000 C   0  0
   -3.1064  -10.9942    0.0000 N   0  0
   -3.3811  -12.4697    0.0000 C   0  0
   -2.4698  -13.2504    0.0000 N   0  0
   -4.5128  -12.8689    0.0000 N   0  0
   -2.5762   -6.5576    0.0000 C   0  0
   -1.1147   -6.8955    0.0000 N   0  0
    0.3848   -6.9324    0.0000 C   0  0  2  0  0  0
    1.8611   -6.6666    0.0000 C   0  0
    3.2536   -6.1091    0.0000 N   0  0
    4.5055   -5.2827    0.0000 C   0  0  1  0  0  0
    5.8037   -6.0588    0.0000 C   0  0
    5.2698   -7.4615    0.0000 C   0  0
    6.2169   -8.6258    0.0000 C   0  0
    5.6830  -10.0284    0.0000 N   0  0
    6.6301  -11.1927    0.0000 C   0  0
    6.2032  -12.3142    0.0000 N   0  0
    7.8148  -11.0020    0.0000 N   0  0
    5.5653   -4.2212    0.0000 C   0  0
    6.4959   -4.9788    0.0000 O   0  0
    6.3898   -2.9681    0.0000 N   0  0
    6.9451   -1.5747    0.0000 C   0  0  2  0  0  0
    7.2086   -0.0980    0.0000 C   0  0
    7.1694    1.4015    0.0000 N   0  0
    6.8292    2.8624    0.0000 C   0  0  2  0  0  0
    8.3416    2.8367    0.0000 C   0  0
    8.9235    1.7872    0.0000 O   0  0
    9.1148    4.1230    0.0000 N   0  0
   10.6154    4.0975    0.0000 C   0  0  1  0  0  0
   11.3886    5.3838    0.0000 C   0  0
   12.8892    5.3584    0.0000 C   0  0
   13.6624    6.6447    0.0000 C   0  0
   15.1630    6.6192    0.0000 C   0  0
   15.7812    7.6477    0.0000 N   0  0
   11.3459    2.7865    0.0000 C   0  0
   12.5457    2.7674    0.0000 O   0  0
   10.7298    1.7567    0.0000 O   0  0
    6.2019    4.2249    0.0000 C   0  0
    5.3132    5.4333    0.0000 N   0  0
    4.1994    6.4380    0.0000 C   0  0
    2.9061    7.1979    0.0000 C   0  0
    3.5142    7.1498    0.0000 C   0  0
    2.9324    7.3249    0.0000 C   0  0
    1.4932    7.7475    0.0000 C   0  0
    0.0000    7.8901    0.0000 C   0  0
    1.4864    7.6820    0.0000 C   0  0
   -1.4932    7.7475    0.0000 C   0  0
   -2.9325    7.3249    0.0000 N   0  0
   -4.2657    6.6375    0.0000 C   0  0
   -5.4448    5.7103    0.0000 C   0  0  2  0  0  0
   -6.4271    4.5767    0.0000 N   0  0
   -7.1771    3.2776    0.0000 C   0  0
   -8.2687    3.7761    0.0000 O   0  0
   -7.6677    1.8601    0.0000 C   0  0  2  0  0  0
   -7.8812    0.3754    0.0000 N   0  0
   -7.8098   -1.1229    0.0000 C   0  0
   -7.4561   -2.5806    0.0000 C   0  0  2  0  0  0
   -8.9686   -2.5537    0.0000 C   0  0
   -9.7428   -3.8394    0.0000 C   0  0
   -9.2586   -4.7144    0.0000 O   0  0
  -10.9427   -3.8181    0.0000 O   0  0
   -6.8330   -3.9451    0.0000 N   0  0
   -5.9629   -5.1669    0.0000 C   0  0
   -4.8773   -6.2020    0.0000 C   0  0  1  0  0  0
   -3.6154   -7.0130    0.0000 N   0  0
   -2.2229   -7.5705    0.0000 C   0  0
   -0.7500   -7.8544    0.0000 C   0  0  2  0  0  0
   -0.8967   -9.3600    0.0000 C   0  0
   -2.2627   -9.9817    0.0000 C   0  0
   -2.4104  -11.4719    0.0000 C   0  0
   -3.7930  -12.0861    0.0000 C   0  0
   -5.0085  -11.2122    0.0000 C   0  0
   -4.8596   -9.7223    0.0000 C   0  0
   -6.0751   -8.8485    0.0000 C   0  0
   -7.4396   -9.4644    0.0000 C   0  0
   -7.5885  -10.9543    0.0000 C   0  0
   -6.3730  -11.8282    0.0000 C   0  0
   -3.4951   -9.1063    0.0000 C   0  0
    0.7500   -7.8544    0.0000 N   0  0
    2.2229   -7.5705    0.0000 C   0  0
    2.5610   -8.7219    0.0000 O   0  0
    3.6155   -7.0130    0.0000 C   0  0  1  0  0  0
    3.6923   -8.5197    0.0000 C   0  0
    5.0255   -9.2071    0.0000 C   0  0
    6.2874   -8.3961    0.0000 C   0  0
    6.2160   -6.8978    0.0000 C   0  0
    4.8773   -6.2020    0.0000 N   0  0
    5.9629   -5.1669    0.0000 C   0  0
    6.8330   -3.9450    0.0000 C   0  0  2  0  0  0
    7.4561   -2.5806    0.0000 N   0  0
    7.8098   -1.1229    0.0000 C   0  0
    7.8812    0.3754    0.0000 C   0  0
    7.6677    1.8602    0.0000 N   0  0
    8.4958    0.9917    0.0000 C   0  0
    7.1771    3.2777    0.0000 C   0  0
    6.4271    4.5767    0.0000 C   0  0  1  0  0  0
    5.4448    5.7103    0.0000 N   0  0
    4.2657    6.6376    0.0000 C   0  0
    4.8063    7.4788    0.0000 O   0  0
    6.2263    7.0009    0.0000 C   0  0
    7.6874    6.6611    0.0000 C   0  0
    7.8157    5.1666    0.0000 C   0  0
    8.0867    3.6931    0.0000 O   0  0
    8.9976   -1.2936    0.0000 O   0  0
    8.3223   -4.2106    0.0000 C   0  0
    8.8337   -5.6216    0.0000 C   0  0
    8.0609   -6.5396    0.0000 O   0  0
   10.0151   -5.8323    0.0000 O   0  0
    6.8698   -5.9527    0.0000 O   0  0
   -2.5609   -8.7219    0.0000 O   0  0
   -5.8147   -7.3893    0.0000 C   0  0
   -7.3000   -7.1738    0.0000 C   0  0
   -8.2300   -8.3517    0.0000 C   0  0
   -9.7153   -8.1362    0.0000 N   0  0
  -10.6453   -9.3141    0.0000 C   0  0
  -11.8329   -9.1418    0.0000 N   0  0
  -10.2011  -10.4289    0.0000 N   0  0
   -6.8698   -5.9528    0.0000 O   0  0
   -8.9976   -1.2937    0.0000 O   0  0
   -8.6395    2.0959    0.0000 C   0  0
   -1.7204    8.9258    0.0000 O   0  0
    4.7906    7.2445    0.0000 O   0  0
    8.4052   -0.1882    0.0000 O   0  0
    8.3988   -1.9925    0.0000 C   0  0
    8.7619   -3.4487    0.0000 C   0  0
   10.2044   -3.8633    0.0000 C   0  0
   10.5675   -5.3195    0.0000 N   0  0
   12.0099   -5.7341    0.0000 C   0  0
   12.3003   -6.8984    0.0000 N   0  0
   12.8734   -4.9008    0.0000 N   0  0
    2.1369   -7.6278    0.0000 O   0  0
   -0.0248   -8.3884    0.0000 C   0  0
    1.0226   -9.4634    0.0000 C   0  0
    0.6162  -10.9082    0.0000 C   0  0
    1.6635  -11.9832    0.0000 N   0  0
    1.2571  -13.4279    0.0000 C   0  0
    0.0941  -13.7237    0.0000 N   0  0
    2.0945  -14.2874    0.0000 N   0  0
   -2.9634   -7.6934    0.0000 O   0  0
   -8.2929   -3.2711    0.0000 C   0  0
   -9.5170   -2.4027    0.0000 C   0  0
  -10.8951   -3.0240    0.0000 C   0  0
  -12.1152   -2.1565    0.0000 C   0  0
  -11.9741   -0.6659    0.0000 C   0  0
  -10.6129   -0.0427    0.0000 C   0  0
   -9.3746   -0.9119    0.0000 C   0  0
  -13.1942    0.2016    0.0000 C   0  0
  -14.5554   -0.4215    0.0000 C   0  0
  -14.6965   -1.9122    0.0000 C   0  0
  -13.4764   -2.7796    0.0000 C   0  0
   -8.9726    1.5046    0.0000 C   0  0
   -9.9334    2.6576    0.0000 C   0  0
  -11.4121    2.4051    0.0000 C   0  0
  -12.3700    3.5594    0.0000 C   0  0
  -11.8494    4.9661    0.0000 C   0  0
  -10.3708    5.2186    0.0000 C   0  0
   -9.4129    4.0644    0.0000 C   0  0
    7.3754    4.2595    0.0000 H   0  0
    3.0762   -7.8551    0.0000 H   0  0
   -6.0829    4.9404    0.0000 H   0  0
  1  2  2  0
  1  3  1  0
  3  4  1  0
  4  5  1  0
  5  6  2  0
  5  7  1  0
  7  8  1  0
  8  9  1  0
  9 10  2  0
  9 11  1  0
 11 12  1  0
 12 13  1  6
 13 14  1  0
 14 15  1  0
 15 16  1  0
 16 17  1  0
 17 18  2  0
 17 19  1  0
 12 20  1  0
 20 21  1  0
 21 22  1  0
 22 23  1  0
 23 24  1  0
 25 24  1  0
 25 26  1  6
 26 27  1  0
 27 28  1  0
 28 29  1  0
 29 30  1  0
 30 31  2  0
 30 32  1  0
 33 25  1  0
 33 34  2  0
 35 33  1  0
 36 35  1  0
 37 36  1  0
 38 37  1  0
 39 38  1  0
 39 40  1  1
 40 41  2  0
 40 42  1  0
 43 42  1  1
 43 44  1  0
 44 45  1  0
 45 46  1  0
 46 47  1  0
 47 48  1  0
 43 49  1  0
 49 50  2  0
 49 51  1  0
 39 52  1  0
 53 52  1  0
 54 53  1  0
 55 54  1  0
 56 55  1  0
 57 56  2  0
 58 57  1  0
 59 58  2  0
 60 59  1  0
 55 60  2  0
 59 61  1  0
 61 62  1  0
 63 62  1  0
 64 63  1  0
 65 64  1  0
 66 65  1  0
 66 67  2  0
 68 66  1  0
 69 68  1  0
 70 69  1  0
 71 70  1  0
 71 72  1  1
 72 73  1  0
 73 74  1  0
 73 75  2  0
 76 71  1  0
 77 76  1  0
 78 77  1  0
 79 78  1  0
 80 79  1  0
 81 80  1  0
 81 82  1  1
 82 83  1  0
 84 83  1  0
 85 84  2  0
 86 85  1  0
 86 87  1  0
 87 88  2  0
 88 89  1  0
 89 90  2  0
 90 91  1  0
 91 86  2  0
 92 87  1  0
 83 92  2  0
 81 93  1  0
 93 94  1  0
 94 95  2  0
 96 94  1  0
 96 97  1  0
 97 98  1  0
 98 99  1  0
 99100  1  0
100101  1  0
101102  1  0
102103  1  0
103104  1  0
104105  1  0
105106  1  0
106107  1  0
107108  1  0
107109  1  0
110109  1  0
111110  1  0
111112  1  0
112 57  1  0
112113  2  0
114111  1  0
115114  1  0
116115  1  0
110116  1  0
109117  2  0
105118  2  0
103119  1  6
119120  1  0
120121  1  0
120122  2  0
102123  2  0
 96101  1  0
 80124  2  0
 78125  1  1
125126  1  0
126127  1  0
127128  1  0
128129  1  0
129130  2  0
129131  1  0
 77132  2  0
 70133  2  0
 68134  1  6
 64  1  1  0
 61135  2  0
 54136  2  0
 37137  2  0
 36138  1  6
138139  1  0
139140  1  0
140141  1  0
141142  1  0
142143  2  0
142144  1  0
 23145  2  0
 22146  1  6
146147  1  0
147148  1  0
148149  1  0
149150  1  0
150151  1  0
150152  2  0
 20153  2  0
  8154  1  6
154155  1  0
155156  2  0
156157  1  0
158157  1  0
158159  1  0
159160  2  0
160155  1  0
161158  2  0
162161  1  0
163162  2  0
164163  1  0
157164  2  0
  4165  1  6
165166  1  0
166167  2  0
167168  1  0
168169  2  0
169170  1  0
170171  2  0
171166  1  0
110172  1  6
 96173  1  1
 64174  1  6
M  END