
  SciTegic04301217312D

 44 48  0  0  0  0            999 V2000
   28.2902   -7.9791    0.0000 C   0  0
   28.2891   -8.8065    0.0000 C   0  0
   29.0039   -9.2194    0.0000 C   0  0
   29.0021   -7.5664    0.0000 C   0  0
   29.7175   -7.9755    0.0000 C   0  0
   29.7223   -8.8019    0.0000 C   0  0
   30.5098   -9.0528    0.0000 N   0  0
   30.9917   -8.3813    0.0000 C   0  0
   30.5020   -7.7156    0.0000 N   0  0
   31.8167   -8.3764    0.0000 C   0  0
   32.2250   -7.6595    0.0000 C   0  0
   33.0500   -7.6547    0.0000 C   0  0
   30.7693   -9.8359    0.0000 C   0  0
   31.5917   -9.8333    0.0000 C   0  0
   32.0032  -10.5466    0.0000 C   0  0
   32.8248  -10.5444    0.0000 C   0  0
   33.2346   -9.8304    0.0000 C   0  0
   32.8168   -9.1171    0.0000 C   0  0
   31.9966   -9.1228    0.0000 C   0  0
   34.0564   -9.8266    0.0000 C   0  0
   34.4714  -10.5408    0.0000 C   0  0
   35.2957  -10.5375    0.0000 C   0  0
   35.7058   -9.8207    0.0000 C   0  0
   35.2857   -9.1057    0.0000 C   0  0
   34.4629   -9.1125    0.0000 C   0  0
   34.0432   -8.4002    0.0000 C   0  0
   34.4505   -7.6828    0.0000 O   0  0
   33.2182   -8.4062    0.0000 O   0  0
   28.9996   -6.7414    0.0000 C   0  0
   27.5743   -9.2184    0.0000 C   0  0
   26.8601   -8.8054    0.0000 N   0  0
   27.5736  -10.0434    0.0000 O   0  0
   26.1453   -9.2173    0.0000 C   0  0
   25.4312   -8.8042    0.0000 C   0  0
   24.7164   -9.2162    0.0000 C   0  0
   24.0058   -8.8022    0.0000 C   0  0
   23.2914   -9.2135    0.0000 C   0  0
   23.2903  -10.0394    0.0000 C   0  0
   24.0095  -10.4523    0.0000 C   0  0
   24.7209  -10.0386    0.0000 C   0  0
   25.4371  -10.4481    0.0000 O   0  0
   25.4406  -11.2731    0.0000 C   0  0
   22.5775   -8.8001    0.0000 O   0  0
   22.5786   -7.9751    0.0000 C   0  0
  8 10  1  0
 21 22  1  0
  5  6  1  0
 22 23  2  0
 10 11  1  0
 23 24  1  0
 24 25  2  0
 25 20  1  0
 17 20  1  0
 11 12  1  0
  2  3  1  0
  7 13  1  0
 26 27  1  0
 26 28  2  0
 25 26  1  0
  3  6  2  0
  4 29  1  0
 13 14  1  0
  2 30  1  0
  1  2  2  0
 30 31  1  0
 14 15  2  0
 30 32  2  0
  5  4  2  0
 31 33  1  0
 15 16  1  0
 33 34  1  0
  6  7  1  0
 34 35  1  0
 16 17  2  0
 35 36  2  0
  7  8  1  0
 36 37  1  0
 17 18  1  0
 37 38  2  0
  8  9  2  0
 38 39  1  0
 18 19  2  0
 39 40  2  0
 40 35  1  0
 19 14  1  0
 40 41  1  0
  9  5  1  0
 41 42  1  0
  4  1  1  0
 37 43  1  0
 20 21  2  0
 43 44  1  0
M  END