
          08180812482D 1   1.00000     0.00000     0

 17 18  0     0  0            999 V2000
   12.1752   -4.8402    0.0000 C   0  0  0  0  0  0           0  0  0
   13.0024   -4.8267    0.0000 C   0  0  0  0  0  0           0  0  0
   13.4026   -4.1047    0.0000 C   0  0  0  0  0  0           0  0  0
   12.9766   -3.3957    0.0000 C   0  0  0  0  0  0           0  0  0
   12.1462   -3.4133    0.0000 C   0  0  0  0  0  0           0  0  0
   11.7498   -4.1358    0.0000 C   0  0  0  0  0  0           0  0  0
   10.9250   -4.1530    0.0000 C   0  0  0  0  0  0           0  0  0
   10.4978   -3.4472    0.0000 C   0  0  0  0  0  0           0  0  0
    9.6730   -3.4643    0.0000 N   0  0  0  0  0  0           0  0  0
   14.2274   -4.0902    0.0000 O   0  0  0  0  0  0           0  0  0
   13.3726   -2.6750    0.0000 C   0  0  0  0  0  0           0  0  0
   14.1986   -2.6604    0.0000 C   0  0  0  0  0  0           0  0  0
   14.5972   -1.9389    0.0000 C   0  0  0  0  0  0           0  0  0
   14.1708   -1.2316    0.0000 C   0  0  0  0  0  0           0  0  0
   13.3418   -1.2503    0.0000 C   0  0  0  0  0  0           0  0  0
   12.9470   -1.9722    0.0000 C   0  0  0  0  0  0           0  0  0
   14.5685   -0.5087    0.0000 C   0  0  0  0  0  0           0  0  0
  8  9  1  0     0  0
  4  5  1  0     0  0
  3 10  1  0     0  0
  2  3  1  0     0  0
  5  6  2  0     0  0
 11 12  2  0     0  0
  6  1  1  0     0  0
 12 13  1  0     0  0
  1  2  2  0     0  0
 13 14  2  0     0  0
  6  7  1  0     0  0
 14 15  1  0     0  0
  3  4  2  0     0  0
 15 16  2  0     0  0
 16 11  1  0     0  0
  4 11  1  0     0  0
  7  8  1  0     0  0
 14 17  1  0     0  0
M  END