
          05270816392D 1   1.00000     0.00000     0

 37 42  0     1  0            999 V2000
    8.9863  -17.2148    0.0000 C   0  0  0  0  0  0           0  0  0
    8.9849  -18.0379    0.0000 C   0  0  0  0  0  0           0  0  0
   10.4095  -17.2108    0.0000 C   0  0  0  0  0  0           0  0  0
    9.7006  -16.8020    0.0000 C   0  0  0  0  0  0           0  0  0
   10.4127  -18.0373    0.0000 C   0  0  0  0  0  0           0  0  0
    9.7013  -18.4518    0.0000 C   0  0  0  0  0  0           0  0  0
    9.6999  -19.2739    0.0000 C   0  0  0  0  0  0           0  0  0
   10.4129  -19.6878    0.0000 C   0  0  0  0  0  0           0  0  0
    8.3691  -18.5898    0.0000 N   0  0  0  0  0  0           0  0  0
    8.9155  -19.5285    0.0000 C   0  0  0  0  0  0           0  0  0
   11.1274  -18.4495    0.0000 C   0  0  2  0  0  0           0  0  0
   11.1283  -19.2773    0.0000 C   0  0  2  0  0  0           0  0  0
   11.8416  -19.6882    0.0000 N   0  0  3  0  0  0           0  0  0
   12.5587  -19.2758    0.0000 C   0  0  0  0  0  0           0  0  0
   12.5578  -18.4480    0.0000 C   0  0  1  0  0  0           0  0  0
   11.8399  -18.0326    0.0000 C   0  0  0  0  0  0           0  0  0
   11.1190  -20.0977    0.0000 H   0  0  0  0  0  0           0  0  0
   11.1190  -17.6227    0.0000 H   0  0  0  0  0  0           0  0  0
   13.2723  -18.0354    0.0000 C   0  0  0  0  0  0           0  0  0
   13.2723  -17.2104    0.0000 O   0  0  0  0  0  0           0  0  0
   13.9868  -18.4479    0.0000 N   0  0  3  0  0  0           0  0  0
   13.9816  -19.2782    0.0000 C   0  0  0  0  0  0           0  0  0
   14.6920  -19.6906    0.0000 C   0  0  0  0  0  0           0  0  0
   15.4089  -19.2816    0.0000 N   0  0  3  0  0  0           0  0  0
   15.4109  -18.4557    0.0000 C   0  0  0  0  0  0           0  0  0
   14.6960  -18.0387    0.0000 C   0  0  0  0  0  0           0  0  0
   16.1218  -19.6969    0.0000 C   0  0  0  0  0  0           0  0  0
   16.1138  -20.5206    0.0000 C   0  0  0  0  0  0           0  0  0
   16.8259  -20.9358    0.0000 C   0  0  0  0  0  0           0  0  0
   17.5429  -20.5259    0.0000 C   0  0  0  0  0  0           0  0  0
   17.5433  -19.6966    0.0000 C   0  0  0  0  0  0           0  0  0
   16.8306  -19.2852    0.0000 N   0  0  3  0  0  0           0  0  0
   11.8413  -20.5132    0.0000 C   0  0  0  0  0  0           0  0  0
   16.8296  -18.4603    0.0000 C   0  0  0  0  0  0           0  0  0
   18.2579  -19.2843    0.0000 O   0  0  0  0  0  0           0  0  0
    8.6211  -20.2991    0.0000 Br  0  0  0  0  0  0           0  0  0
   17.5435  -18.0469    0.0000 C   0  0  0  0  0  0           0  0  0
 12 17  1  1     0  0
  7  8  1  0     0  0
 11 18  1  6     0  0
  8 12  1  0     0  0
 15 19  1  1     0  0
  3  4  2  0     0  0
 19 20  2  0     0  0
  2  9  1  0     0  0
 19 21  1  0     0  0
 21 22  1  0     0  0
  4  1  1  0     0  0
  7 10  2  0     0  0
  9 10  1  0     0  0
 11 12  1  0     0  0
  5  6  2  0     0  0
 21 26  1  0     0  0
 22 23  1  0     0  0
 23 24  1  0     0  0
 24 25  1  0     0  0
 25 26  1  0     0  0
  2  6  1  0     0  0
 24 27  1  0     0  0
 27 28  2  0     0  0
  5  3  1  0     0  0
 28 29  1  0     0  0
  1  2  2  0     0  0
 29 30  2  0     0  0
  5 11  1  0     0  0
 30 31  1  0     0  0
 11 16  1  0     0  0
 31 32  1  0     0  0
 32 27  1  0     0  0
 12 13  1  0     0  0
 13 33  1  0     0  0
 13 14  1  0     0  0
 32 34  1  0     0  0
 14 15  1  0     0  0
 31 35  2  0     0  0
 15 16  1  0     0  0
 10 36  1  0     0  0
  6  7  1  0     0  0
 34 37  1  0     0  0
M  END