
  SciTegic04021211102D

 28 31  0  0  0  0            999 V2000
    0.5862  -24.2272    0.0000 S   0  0
    0.5831  -23.4000    0.0000 O   0  0
   -0.1316  -23.8163    0.0000 O   0  0
   -5.9987  -28.5183    0.0000 C   0  0
   -5.5913  -29.2317    0.0000 C   0  0
   -4.7715  -29.2345    0.0000 C   0  0
   -4.3584  -28.5245    0.0000 C   0  0
   -4.7709  -27.8104    0.0000 C   0  0
   -5.5893  -27.8111    0.0000 C   0  0
   -3.5322  -28.5247    0.0000 C   0  0
   -3.1204  -29.2434    0.0000 C   0  0
   -2.2940  -29.2451    0.0000 C   0  0
   -1.8784  -28.5288    0.0000 C   0  0
   -3.1203  -27.8112    0.0000 C   0  0
   -2.2965  -27.8102    0.0000 C   0  0
   -1.8873  -27.0974    0.0000 C   0  0
   -2.3008  -26.3851    0.0000 N   0  0
   -3.1278  -26.3902    0.0000 N   0  0
   -3.5332  -27.1036    0.0000 C   0  0
   -1.0602  -27.0954    0.0000 N   0  0
   -0.6484  -26.3780    0.0000 C   0  0
    0.1790  -26.3779    0.0000 C   0  0
    0.5907  -25.6614    0.0000 C   0  0
    0.1754  -24.9451    0.0000 C   0  0
   -0.6561  -24.9498    0.0000 C   0  0
   -1.0641  -25.6669    0.0000 C   0  0
   -6.8264  -28.5158    0.0000 O   0  0
    1.4134  -24.2241    0.0000 N   0  0
  2  1  2  0
  7  8  1  0
 14 15  2  0
  4  5  2  0
 15 16  1  0
  8  9  2  0
 16 17  2  0
  9  4  1  0
 17 18  1  0
  1  3  2  0
 18 19  2  0
 19 14  1  0
  5  6  1  0
 16 20  1  0
 10 11  2  0
 20 21  1  0
 21 22  2  0
 11 12  1  0
 22 23  1  0
  6  7  2  0
 23 24  2  0
 12 13  2  0
 24 25  1  0
 13 15  1  0
 25 26  2  0
 26 21  1  0
 14 10  1  0
  4 27  1  0
 24  1  1  0
  7 10  1  0
  1 28  1  0
M  END