
  SciTegic06051313552D

 29 31  0  0  0  0            999 V2000
   32.2732  -30.3830    0.0000 C   0  0
   32.2721  -31.2103    0.0000 C   0  0
   32.9869  -31.6232    0.0000 C   0  0
   33.7034  -31.2099    0.0000 C   0  0
   33.7004  -30.3793    0.0000 C   0  0
   32.9851  -29.9703    0.0000 N   0  3
   32.9827  -29.1453    0.0000 C   0  0
   31.5587  -29.9707    0.0000 C   0  0
   34.4134  -29.9642    0.0000 C   0  0
   35.1293  -30.3740    0.0000 C   0  0
   35.8423  -29.9588    0.0000 C   0  0
   36.5583  -30.3686    0.0000 O   0  0
   37.2712  -29.9534    0.0000 C   0  0
   30.8443  -30.3834    0.0000 C   0  0
   30.1298  -29.9710    0.0000 C   0  0
   29.4154  -30.3837    0.0000 O   0  0
   28.7009  -29.9714    0.0000 C   0  0
   37.9832  -30.3650    0.0000 C   0  0
   38.6956  -29.9505    0.0000 C   0  0
   38.6929  -29.1246    0.0000 C   0  0
   37.9719  -28.7150    0.0000 C   0  0
   37.2624  -29.1318    0.0000 C   0  0
   28.7045  -29.1461    0.0000 C   0  0
   27.9908  -28.7339    0.0000 C   0  0
   27.2755  -29.1466    0.0000 C   0  0
   27.2783  -29.9758    0.0000 C   0  0
   27.9926  -30.3843    0.0000 C   0  0
   26.5603  -28.7352    0.0000 Cl  0  0
   39.4053  -28.7084    0.0000 Cl  0  0
  1  2  2  0
  2  3  1  0
  3  4  2  0
  4  5  1  0
  5  6  2  0
  6  1  1  0
  6  7  1  0
  1  8  1  0
  5  9  1  0
  9 10  1  0
 10 11  1  0
 11 12  1  0
 12 13  1  0
  8 14  1  0
 14 15  1  0
 15 16  1  0
 16 17  1  0
 13 18  2  0
 18 19  1  0
 19 20  2  0
 20 21  1  0
 21 22  2  0
 22 13  1  0
 17 23  2  0
 23 24  1  0
 24 25  2  0
 25 26  1  0
 26 27  2  0
 27 17  1  0
 25 28  1  0
 20 29  1  0
M  CHG  1   6   1
M  END