
          11280715182D 1   1.00000     0.00000     0

 30 32  0     0  0            999 V2000
    3.6292   -2.8667    0.0000 C   0  0  0  0  0  0           0  0  0
    2.2042   -2.8667    0.0000 C   0  0  0  0  0  0           0  0  0
    2.2042   -3.6917    0.0000 C   0  0  0  0  0  0           0  0  0
    2.9167   -4.1042    0.0000 C   0  0  0  0  0  0           0  0  0
    7.2125   -1.6292    0.0000 C   0  0  0  0  0  0           0  0  0
    4.3542   -2.4542    0.0000 C   0  0  0  0  0  0           0  0  0
    3.6292   -3.6917    0.0000 C   0  0  0  0  0  0           0  0  0
    2.9167   -2.4542    0.0000 C   0  0  0  0  0  0           0  0  0
    7.2125   -2.4625    0.0000 C   0  0  0  0  0  0           0  0  0
    6.4917   -1.2167    0.0000 C   0  0  0  0  0  0           0  0  0
    7.9375   -1.2167    0.0000 C   0  0  0  0  0  0           0  0  0
    5.0667   -2.8750    0.0000 N   0  0  0  0  0  0           0  0  0
    5.7792   -2.4625    0.0000 C   0  0  0  0  0  0           0  0  0
    1.4917   -2.4542    0.0000 C   0  0  3  0  0  0           0  0  0
    1.4917   -4.1042    0.0000 C   0  0  3  0  0  0           0  0  0
    5.7792   -1.6292    0.0000 C   0  0  0  0  0  0           0  0  0
    6.4917   -2.8750    0.0000 C   0  0  0  0  0  0           0  0  0
    4.3542   -1.6292    0.0000 O   0  0  0  0  0  0           0  0  0
    7.9375   -0.3875    0.0000 O   0  0  0  0  0  0           0  0  0
    0.7750   -2.8667    0.0000 C   0  0  0  0  0  0           0  0  0
    0.7750   -3.6917    0.0000 C   0  0  0  0  0  0           0  0  0
    2.9167   -4.9292    0.0000 Cl  0  0  0  0  0  0           0  0  0
    7.9292   -2.8792    0.0000 F   0  0  0  0  0  0           0  0  0
    6.4792   -0.3917    0.0000 F   0  0  0  0  0  0           0  0  0
    4.3542   -4.1167    0.0000 O   0  0  0  0  0  0           0  0  0
    8.6542   -1.6292    0.0000 O   0  0  0  0  0  0           0  0  0
    1.0292   -1.7917    0.0000 C   0  0  0  0  0  0           0  0  0
    2.0792   -1.8750    0.0000 C   0  0  0  0  0  0           0  0  0
    0.8750   -4.6667    0.0000 C   0  0  0  0  0  0           0  0  0
    2.0792   -4.6917    0.0000 C   0  0  0  0  0  0           0  0  0
  2  8  1  0     0  0
  3  2  2  0     0  0
  4  7  2  0     0  0
  5  9  2  0     0  0
  6  1  1  0     0  0
  7  1  1  0     0  0
  8  1  2  0     0  0
  9 17  1  0     0  0
 10 16  2  0     0  0
 11  5  1  0     0  0
 12  6  1  0     0  0
 13 12  1  0     0  0
 14  2  1  0     0  0
 15  3  1  0     0  0
 16 13  1  0     0  0
 17 13  2  0     0  0
 18  6  2  0     0  0
 19 11  2  0     0  0
 20 14  1  0     0  0
 21 20  1  0     0  0
 22  4  1  0     0  0
 23  9  1  0     0  0
 24 10  1  0     0  0
 25  7  1  0     0  0
 26 11  1  0     0  0
 27 14  1  0     0  0
 28 14  1  0     0  0
 29 15  1  0     0  0
 30 15  1  0     0  0
  3  4  1  0     0  0
 15 21  1  0     0  0
 10  5  1  0     0  0
M  END