
          11280714512D 1   1.00000     0.00000     0

 28 30  0     1  0            999 V2000
    1.0167   -2.6542    0.0000 O   0  0  0  0  0  0           0  0  0
    0.4917   -2.3542    0.0000 C   0  0  1  0  0  0           0  0  0
    1.5292   -2.3542    0.0000 C   0  0  2  0  0  0           0  0  0
   -0.0250   -2.6542    0.0000 C   0  0  0  0  0  0           0  0  0
    2.0500   -2.6542    0.0000 C   0  0  0  0  0  0           0  0  0
    0.4917   -1.7542    0.0000 O   0  0  0  0  0  0           0  0  0
    1.5292   -1.7542    0.0000 C   0  0  1  0  0  0           0  0  0
   -0.5458   -2.3542    0.0000 C   0  0  0  0  0  0           0  0  0
    2.0500   -3.2542    0.0000 C   0  0  0  0  0  0           0  0  0
    1.0125   -1.4542    0.0000 C   0  0  0  0  0  0           0  0  0
    4.7250   -1.4292    0.0000 C   0  0  0  0  0  0           0  0  0
    4.7167   -0.8292    0.0000 O   0  0  0  0  0  0           0  0  0
    2.5667   -1.7500    0.0000 C   0  0  0  0  0  0           0  0  0
    3.1667   -1.7500    0.0000 C   0  0  0  0  0  0           0  0  0
   -0.5500   -1.7542    0.0000 Cl  0  0  0  0  0  0           0  0  0
    5.2417   -1.7292    0.0000 O   0  0  0  0  0  0           0  0  0
    1.5292   -3.5542    0.0000 O   0  0  0  0  0  0           0  0  0
   -0.0250   -3.2625    0.0000 C   0  0  0  0  0  0           0  0  0
    2.5667   -2.3500    0.0000 C   0  0  0  0  0  0           0  0  0
    2.0500   -1.4542    0.0000 C   0  0  0  0  0  0           0  0  0
    4.2042   -1.7375    0.0000 C   0  0  0  0  0  0           0  0  0
    3.6875   -1.4417    0.0000 C   0  0  0  0  0  0           0  0  0
   -1.0625   -2.6625    0.0000 C   0  0  0  0  0  0           0  0  0
    2.5667   -3.5542    0.0000 C   0  0  0  0  0  0           0  0  0
   -0.5458   -3.5625    0.0000 C   0  0  0  0  0  0           0  0  0
    3.0875   -2.6500    0.0000 C   0  0  0  0  0  0           0  0  0
    3.0917   -3.2500    0.0000 C   0  0  0  0  0  0           0  0  0
   -1.0625   -3.2625    0.0000 C   0  0  0  0  0  0           0  0  0
  2  1  1  0     0  0
  3  1  1  0     0  0
  2  4  1  1     0  0
  3  5  1  1     0  0
  6  2  1  0     0  0
  7  3  1  0     0  0
  8  4  2  0     0  0
  9  5  2  0     0  0
 10  7  1  0     0  0
 11 21  1  0     0  0
 12 11  2  0     0  0
 13 20  1  0     0  0
 14 13  2  0     0  0
 15  8  1  0     0  0
 16 11  1  0     0  0
 17  9  1  0     0  0
 18  4  1  0     0  0
 19  5  1  0     0  0
  7 20  1  1     0  0
 21 22  1  0     0  0
 22 14  1  0     0  0
 23  8  1  0     0  0
 24  9  1  0     0  0
 25 18  2  0     0  0
 26 19  2  0     0  0
 27 26  1  0     0  0
 28 25  1  0     0  0
 10  6  1  0     0  0
 24 27  2  0     0  0
 23 28  2  0     0  0
M  END