
  SciTegic01161211252D

 38 43  0  0  0  0            999 V2000
   -0.4375   -9.9989    0.0000 N   0  0
   -0.4417  -10.8238    0.0000 C   0  0
    0.2668  -11.2375    0.0000 C   0  0
    0.9838  -10.8310    0.0000 C   0  0
    0.9880  -10.0061    0.0000 C   0  0
    0.2751   -9.5877    0.0000 C   0  0
   -1.0987   -6.9826    0.0000 C   0  0
   -1.2063   -6.1623    0.0000 C   0  0
   -1.9691   -5.8470    0.0000 C   0  0
   -2.6249   -6.3510    0.0000 C   0  0
   -1.7500   -7.4853    0.0000 C   0  0
   -2.5147   -7.1686    0.0000 C   0  0
   -1.8145   -8.3102    0.0000 C   0  0
   -2.6197   -8.5038    0.0000 C   0  0
   -3.0491   -7.7963    0.0000 C   0  0
   -3.8746   -7.8155    0.0000 C   0  0
   -4.2716   -8.5413    0.0000 C   0  0
   -3.8372   -9.2494    0.0000 C   0  0
   -3.0132   -9.2268    0.0000 C   0  0
   -1.1122   -8.7429    0.0000 C   0  0
   -1.1359   -9.5675    0.0000 C   0  0
    1.7205   -9.6494    0.0000 C   0  0
    2.4228  -10.0822    0.0000 N   0  0
    1.7442   -8.8248    0.0000 O   0  0
    2.3948  -10.9031    0.0000 C   0  0
    3.0931  -11.3356    0.0000 C   0  0
    3.8213  -10.9474    0.0000 N   0  0
    3.8469  -10.1219    0.0000 C   0  0
    3.1443   -9.6846    0.0000 C   0  0
    4.5189  -11.3819    0.0000 C   0  0
    4.4908  -12.2074    0.0000 C   0  0
    5.1905  -12.6428    0.0000 C   0  0
    5.9189  -12.2537    0.0000 C   0  0
    5.9432  -11.4249    0.0000 C   0  0
    5.2427  -10.9933    0.0000 C   0  0
    6.6214  -12.6902    0.0000 N   0  3
    7.3482  -12.3001    0.0000 O   0  0
    6.5957  -13.5147    0.0000 O   0  5
  2  3  1  0
 18 19  2  0
 19 14  1  0
  9 10  2  0
 13 20  1  0
 10 12  1  0
 20 21  1  0
 21  1  1  0
 11  7  1  0
  5 22  1  0
 11 12  2  0
 22 23  1  0
  3  4  1  0
 22 24  2  0
 23 25  1  0
  4  5  1  0
  5  6  1  0
 12 15  1  0
 14 13  1  0
 13 11  1  0
 23 29  1  0
 25 26  1  0
 26 27  1  0
 27 28  1  0
 28 29  1  0
  1  2  1  0
 30 31  2  0
 14 15  2  0
 31 32  1  0
  7  8  2  0
 32 33  2  0
 15 16  1  0
 33 34  1  0
  1  6  1  0
 34 35  2  0
 35 30  1  0
 27 30  1  0
 16 17  2  0
  8  9  1  0
 17 18  1  0
 36 37  2  0
 36 38  1  0
 33 36  1  0
M  CHG  2  36   1  38  -1
M  END