
  CDK    9/16/09,9:50

 33 36  0  0  0  0  0  0  0  0999 V2000
   -2.9098    1.5334    0.0000 C   0  0  0  0  0  0  0  0  0  0  0  0
   -2.9109    0.7060    0.0000 C   0  0  0  0  0  0  0  0  0  0  0  0
   -2.1961    0.2931    0.0000 C   0  0  0  0  0  0  0  0  0  0  0  0
   -2.1979    1.9461    0.0000 C   0  0  0  0  0  0  0  0  0  0  0  0
   -1.4825    1.5370    0.0000 C   0  0  0  0  0  0  0  0  0  0  0  0
   -1.4823    0.7060    0.0000 C   0  0  0  0  0  0  0  0  0  0  0  0
   -0.6918    0.4494    0.0000 N   0  0  0  0  0  0  0  0  0  0  0  0
   -0.2035    1.1219    0.0000 C   0  0  0  0  0  0  0  0  0  0  0  0
   -0.6922    1.7940    0.0000 N   0  0  0  0  0  0  0  0  0  0  0  0
    0.6215    1.1222    0.0000 C   0  0  0  0  0  0  0  0  0  0  0  0
    1.0338    1.8368    0.0000 C   0  0  0  0  0  0  0  0  0  0  0  0
    1.8588    1.8371    0.0000 C   0  0  0  0  0  0  0  0  0  0  0  0
    2.2710    2.5517    0.0000 C   0  0  0  0  0  0  0  0  0  0  0  0
   -0.2875   -0.2625    0.0000 C   0  0  0  0  0  0  0  0  0  0  0  0
    0.5375   -0.2683    0.0000 C   0  0  0  0  0  0  0  0  0  0  0  0
    0.9422   -0.9866    0.0000 C   0  0  0  0  0  0  0  0  0  0  0  0
    1.7664   -0.9927    0.0000 C   0  0  0  0  0  0  0  0  0  0  0  0
    2.1848   -0.2807    0.0000 C   0  0  0  0  0  0  0  0  0  0  0  0
    1.7730    0.4391    0.0000 C   0  0  0  0  0  0  0  0  0  0  0  0
    0.9501    0.4418    0.0000 C   0  0  0  0  0  0  0  0  0  0  0  0
    3.0063   -0.2850    0.0000 C   0  0  0  0  0  0  0  0  0  0  0  0
    3.4140   -1.0035    0.0000 C   0  0  0  0  0  0  0  0  0  0  0  0
    4.2382   -1.0085    0.0000 C   0  0  0  0  0  0  0  0  0  0  0  0
    4.6557   -0.2959    0.0000 C   0  0  0  0  0  0  0  0  0  0  0  0
    4.2429    0.4233    0.0000 C   0  0  0  0  0  0  0  0  0  0  0  0
    3.4200    0.4249    0.0000 C   0  0  0  0  0  0  0  0  0  0  0  0
    2.9965   -1.7190    0.0000 C   0  0  0  0  0  0  0  0  0  0  0  0
    2.1715   -1.7134    0.0000 O   0  0  0  0  0  0  0  0  0  0  0  0
    3.4042   -2.4362    0.0000 O   0  0  0  0  0  0  0  0  0  0  0  0
   -3.6243    1.9457    0.0000 N   0  0  0  0  0  0  0  0  0  0  0  0
   -4.3387    1.5330    0.0000 C   0  0  0  0  0  0  0  0  0  0  0  0
   -5.0533    1.9454    0.0000 C   0  0  0  0  0  0  0  0  0  0  0  0
   -4.3385    0.7080    0.0000 O   0  0  0  0  0  0  0  0  0  0  0  0
 15 16  2  0  0  0  0 
  6  7  1  0  0  0  0 
 16 17  1  0  0  0  0 
  7  8  1  0  0  0  0 
 17 18  2  0  0  0  0 
  8  9  2  0  0  0  0 
 18 19  1  0  0  0  0 
  9  5  1  0  0  0  0 
 19 20  2  0  0  0  0 
 20 15  1  0  0  0  0 
  4  1  1  0  0  0  0 
  8 10  1  0  0  0  0 
 21 22  2  0  0  0  0 
  5  6  1  0  0  0  0 
 22 23  1  0  0  0  0 
 10 11  1  0  0  0  0 
 23 24  2  0  0  0  0 
 24 25  1  0  0  0  0 
 11 12  1  0  0  0  0 
 25 26  2  0  0  0  0 
 26 21  1  0  0  0  0 
 18 21  1  0  0  0  0 
  2  3  1  0  0  0  0 
 12 13  1  0  0  0  0 
  3  6  2  0  0  0  0 
 27 28  1  0  0  0  0 
 27 29  2  0  0  0  0 
 22 27  1  0  0  0  0 
  7 14  1  0  0  0  0 
  1 30  1  0  0  0  0 
  1  2  2  0  0  0  0 
 30 31  1  0  0  0  0 
 14 15  1  0  0  0  0 
 31 32  1  0  0  0  0 
  5  4  2  0  0  0  0 
 31 33  2  0  0  0  0 
M  END