
  CDK    7/21/10,16:44

 33 35  0  0  0  0  0  0  0  0999 V2000
    0.7178    0.2079    0.0000 C   0  0  0  0  0  0  0  0  0  0  0  0
    1.4332   -0.2079    0.0000 C   0  0  0  0  0  0  0  0  0  0  0  0
    0.0072   -0.2079    0.0000 C   0  0  0  0  0  0  0  0  0  0  0  0
    2.1437    0.1934    0.0000 C   0  0  0  0  0  0  0  0  0  0  0  0
    1.4187   -1.0344    0.0000 C   0  0  0  0  0  0  0  0  0  0  0  0
    2.8590   -0.2175    0.0000 C   0  0  0  0  0  0  0  0  0  0  0  0
   -0.7081    0.2175    0.0000 N   0  0  0  0  0  0  0  0  0  0  0  0
    2.1340   -1.4597    0.0000 N   0  0  0  0  0  0  0  0  0  0  0  0
    0.7081   -1.4452    0.0000 C   0  0  0  0  0  0  0  0  0  0  0  0
   -0.0073   -1.0344    0.0000 C   0  0  0  0  0  0  0  0  0  0  0  0
    2.1437    1.0199    0.0000 N   0  0  0  0  0  0  0  0  0  0  0  0
    3.5744    0.1934    0.0000 C   0  0  0  0  0  0  0  0  0  0  0  0
    4.2849    0.6090    0.0000 N   0  0  0  0  0  0  0  0  0  0  0  0
   -1.4187   -0.1934    0.0000 C   0  0  0  0  0  0  0  0  0  0  0  0
    4.2849    1.4307    0.0000 C   0  0  0  0  0  0  0  0  0  0  0  0
    3.5744    1.0199    0.0000 C   0  0  0  0  0  0  0  0  0  0  0  0
    2.8590   -1.0440    0.0000 C   0  0  0  0  0  0  0  0  0  0  0  0
    2.8590    1.4307    0.0000 C   0  0  0  0  0  0  0  0  0  0  0  0
    4.2849    2.2572    0.0000 C   0  0  0  0  0  0  0  0  0  0  0  0
   -2.1340    0.2175    0.0000 C   0  0  0  0  0  0  0  0  0  0  0  0
   -2.8590   -0.1934    0.0000 C   0  0  0  0  0  0  0  0  0  0  0  0
   -1.4332   -1.0199    0.0000 O   0  0  0  0  0  0  0  0  0  0  0  0
    3.5744    2.6730    0.0000 C   0  0  0  0  0  0  0  0  0  0  0  0
    5.0003    1.0199    0.0000 Cl  0  0  0  0  0  0  0  0  0  0  0  0
    2.8590    2.2572    0.0000 C   0  0  0  0  0  0  0  0  0  0  0  0
   -4.2849   -0.1836    0.0000 N   0  0  0  0  0  0  0  0  0  0  0  0
    5.0003    2.6730    0.0000 F   0  0  0  0  0  0  0  0  0  0  0  0
   -0.7178   -1.4452    0.0000 O   0  0  0  0  0  0  0  0  0  0  0  0
   -3.5744    0.2320    0.0000 C   0  0  0  0  0  0  0  0  0  0  0  0
   -5.0003    0.2320    0.0000 C   0  0  0  0  0  0  0  0  0  0  0  0
   -4.2849   -1.0054    0.0000 C   0  0  0  0  0  0  0  0  0  0  0  0
   -0.7323   -2.2717    0.0000 C   0  0  0  0  0  0  0  0  0  0  0  0
   -1.4477   -2.6730    0.0000 C   0  0  0  0  0  0  0  0  0  0  0  0
  2  1  1  0  0  0  0 
  3  1  2  0  0  0  0 
  4  2  1  0  0  0  0 
  5  2  2  0  0  0  0 
  6  4  2  0  0  0  0 
  7  3  1  0  0  0  0 
  8  5  1  0  0  0  0 
  9 10  2  0  0  0  0 
 10  3  1  0  0  0  0 
 11  4  1  0  0  0  0 
 12  6  1  0  0  0  0 
 13 12  3  0  0  0  0 
 14  7  1  0  0  0  0 
 15 16  1  0  0  0  0 
 16 18  2  0  0  0  0 
 17  8  2  0  0  0  0 
 18 11  1  0  0  0  0 
 19 23  1  0  0  0  0 
 20 14  1  0  0  0  0 
 21 20  2  0  0  0  0 
 22 14  2  0  0  0  0 
 23 25  2  0  0  0  0 
 24 15  1  0  0  0  0 
 25 18  1  0  0  0  0 
 26 29  1  0  0  0  0 
 27 19  1  0  0  0  0 
 28 10  1  0  0  0  0 
 29 21  1  0  0  0  0 
 30 26  1  0  0  0  0 
 31 26  1  0  0  0  0 
 32 28  1  0  0  0  0 
 33 32  1  0  0  0  0 
  5  9  1  0  0  0  0 
 17  6  1  0  0  0  0 
 19 15  2  0  0  0  0 
M  END