
          11280715392D 1   1.00000     0.00000     0

 42 43  0     0  0            999 V2000
   -0.1208   -2.4417    0.0000 C   0  0  0  0  0  0           0  0  0
   14.5750   -9.2042    0.0000 C   0  0  0  0  0  0           0  0  0
   12.4792   -8.6792    0.0000 N   0  0  0  0  0  0           0  0  0
    1.9792   -2.9667    0.0000 N   0  0  0  0  0  0           0  0  0
    5.2792   -4.5250    0.0000 N   0  0  0  0  0  0           0  0  0
    9.1792   -7.1250    0.0000 N   0  0  0  0  0  0           0  0  0
   13.3792   -9.2042    0.0000 C   0  0  0  0  0  0           0  0  0
    1.0792   -2.4500    0.0000 C   0  0  0  0  0  0           0  0  0
    0.1792   -1.9250    0.0000 C   0  0  0  0  0  0           0  0  0
   14.2750   -9.7250    0.0000 C   0  0  0  0  0  0           0  0  0
    0.1792   -2.9667    0.0000 C   0  0  0  0  0  0           0  0  0
   14.2667   -8.6792    0.0000 C   0  0  0  0  0  0           0  0  0
    0.7792   -2.9667    0.0000 C   0  0  0  0  0  0           0  0  0
    0.7792   -1.9250    0.0000 C   0  0  0  0  0  0           0  0  0
   13.6750   -9.7250    0.0000 C   0  0  0  0  0  0           0  0  0
   13.6750   -8.6792    0.0000 C   0  0  0  0  0  0           0  0  0
   -0.7208   -2.4417    0.0000 O   0  0  0  0  0  0           0  0  0
   15.1750   -9.2042    0.0000 O   0  0  0  0  0  0           0  0  0
    1.6792   -2.4500    0.0000 C   0  0  0  0  0  0           0  0  0
   12.7792   -9.2042    0.0000 C   0  0  0  0  0  0           0  0  0
    9.7792   -7.1250    0.0000 C   0  0  0  0  0  0           0  0  0
   11.8792   -8.6792    0.0000 C   0  0  0  0  0  0           0  0  0
    2.5792   -2.9667    0.0000 C   0  0  0  0  0  0           0  0  0
    5.5792   -5.0417    0.0000 C   0  0  0  0  0  0           0  0  0
    8.8792   -6.6042    0.0000 C   0  0  0  0  0  0           0  0  0
    4.6792   -4.5250    0.0000 C   0  0  0  0  0  0           0  0  0
   -1.0208   -2.9667    0.0000 C   0  0  0  0  0  0           0  0  0
   15.4750   -8.6792    0.0000 C   0  0  0  0  0  0           0  0  0
    4.3792   -4.0042    0.0000 C   0  0  0  0  0  0           0  0  0
    2.8792   -3.4875    0.0000 C   0  0  0  0  0  0           0  0  0
    6.1792   -5.0417    0.0000 C   0  0  0  0  0  0           0  0  0
   10.0792   -7.6417    0.0000 C   0  0  0  0  0  0           0  0  0
   11.5792   -8.1625    0.0000 C   0  0  0  0  0  0           0  0  0
    8.2792   -6.6042    0.0000 C   0  0  0  0  0  0           0  0  0
   10.6792   -7.6417    0.0000 C   0  0  0  0  0  0           0  0  0
   10.9792   -8.1625    0.0000 C   0  0  0  0  0  0           0  0  0
    7.9792   -6.0792    0.0000 C   0  0  0  0  0  0           0  0  0
    3.7792   -4.0042    0.0000 C   0  0  0  0  0  0           0  0  0
    3.4792   -3.4875    0.0000 C   0  0  0  0  0  0           0  0  0
    6.4792   -5.5667    0.0000 C   0  0  0  0  0  0           0  0  0
    7.0792   -5.5667    0.0000 C   0  0  0  0  0  0           0  0  0
    7.3792   -6.0792    0.0000 C   0  0  0  0  0  0           0  0  0
  2 12  1  0     0  0
  3 22  1  0     0  0
  4 19  1  0     0  0
  5 26  1  0     0  0
  6 25  1  0     0  0
  7 20  1  0     0  0
  8 13  1  0     0  0
  9  1  2  0     0  0
 10 15  1  0     0  0
 11  1  1  0     0  0
 12 16  2  0     0  0
 13 11  2  0     0  0
 14  9  1  0     0  0
 15  7  2  0     0  0
 16  7  1  0     0  0
 17  1  1  0     0  0
 18  2  1  0     0  0
 19  8  1  0     0  0
 20  3  1  0     0  0
 21  6  1  0     0  0
 22 33  1  0     0  0
 23  4  1  0     0  0
 24  5  1  0     0  0
 25 34  1  0     0  0
 26 29  1  0     0  0
 27 17  1  0     0  0
 28 18  1  0     0  0
 29 38  1  0     0  0
 30 23  1  0     0  0
 31 24  1  0     0  0
 32 21  1  0     0  0
 33 36  1  0     0  0
 34 37  1  0     0  0
 35 32  1  0     0  0
 36 35  1  0     0  0
 37 42  1  0     0  0
 38 39  1  0     0  0
 39 30  1  0     0  0
 40 31  1  0     0  0
 41 40  1  0     0  0
 42 41  1  0     0  0
  8 14  2  0     0  0
 10  2  2  0     0  0
M  END