
  SciTegic01091216402D

 26 28  0  0  0  0            999 V2000
    8.3867   -4.6153    0.0000 N   0  0
    8.4647   -5.4381    0.0000 N   0  0
    9.2676   -5.6141    0.0000 C   0  0
    9.6873   -4.9024    0.0000 C   0  0
    9.1402   -4.2863    0.0000 C   0  0
    7.6750   -4.1959    0.0000 C   0  0
    6.9574   -4.6024    0.0000 N   0  0
    7.6833   -3.3734    0.0000 N   0  0
    8.8890   -2.1199    0.0000 C   0  0
    8.7094   -2.9252    0.0000 C   0  0
    9.3197   -3.4810    0.0000 C   0  0
   10.1058   -3.2341    0.0000 C   0  0
   10.2853   -2.4288    0.0000 C   0  0
    9.6753   -1.8730    0.0000 N   0  0
    6.9719   -2.9540    0.0000 C   0  0
    6.9781   -2.1278    0.0000 C   0  0
    6.2478   -4.1864    0.0000 S   0  0
    6.6639   -3.4768    0.0000 O   0  0
    5.5300   -4.5871    0.0000 C   0  0
    4.8181   -4.1677    0.0000 C   0  0
    4.1028   -4.5734    0.0000 C   0  0
    4.0950   -5.3981    0.0000 C   0  0
    4.8024   -5.8174    0.0000 C   0  0
    5.5222   -5.4117    0.0000 C   0  0
    3.3909   -4.1541    0.0000 Cl  0  0
    5.6571   -3.5949    0.0000 O   0  0
  1  2  1  0
  2  3  2  0
  3  4  1  0
  4  5  1  0
  1  5  1  0
  6  7  2  0
  6  8  1  0
  1  6  1  0
  9 10  1  0
 10 11  2  0
 11 12  1  0
 12 13  2  0
 13 14  1  0
  9 14  2  0
  5 11  1  0
 15 16  1  0
  8 15  1  0
 17 18  2  0
 19 20  1  0
 20 21  2  0
 21 22  1  0
 22 23  2  0
 23 24  1  0
 19 24  2  0
 17 19  1  0
 21 25  1  0
  7 17  1  0
 17 26  2  0
M  END