
  SciTegic12231509382D

 28 31  0  0  0  0            999 V2000
    0.6167   -3.0167    0.0000 S   0  0
    1.4417   -3.1875    0.0000 N   0  0
    1.7167   -2.5375    0.0000 C   0  0
    1.2375   -2.0500    0.0000 C   0  0
    0.5750   -2.3417    0.0000 C   0  0
    4.8917   -2.0000    0.0000 C   0  0
    4.5042   -2.5875    0.0000 N   0  0
    0.6167   -3.7875    0.0000 O   0  0
   -0.1958   -3.0542    0.0000 O   0  0
    3.8042   -3.8000    0.0000 N   0  0
    4.5167   -1.3750    0.0000 N   0  0
    5.6292   -2.0000    0.0000 N   0  0
    2.4000   -2.5375    0.0000 O   0  0
    4.8667   -3.1542    0.0000 C   0  0
    3.8042   -2.5792    0.0000 C   0  0
    1.7000   -3.7792    0.0000 C   0  0
    4.5167   -3.8000    0.0000 C   0  0
    3.4375   -3.1875    0.0000 C   0  0
    1.2375   -1.3042    0.0000 C   0  0
   -0.0083   -1.9375    0.0000 C   0  0
    5.5375   -0.8042    0.0000 C   0  0
    3.4375   -4.3667    0.0000 C   0  0
    4.8292   -0.8042    0.0000 C   0  0
    5.9250   -1.4042    0.0000 C   0  0
    2.3667   -3.7875    0.0000 C   0  0
    2.7292   -4.3792    0.0000 C   0  0
    0.6667   -0.9000    0.0000 C   0  0
   -0.0083   -1.2250    0.0000 C   0  0
  2  1  1  0
  3  2  1  0
  4  5  2  0
  5  1  1  0
  6  7  1  0
  7 15  1  0
  8  1  2  0
  9  1  2  0
 10 22  1  0
 11  6  1  0
 12  6  2  0
 13  3  2  0
 14 17  1  0
 15 18  1  0
 16  2  1  0
 17 10  1  0
 18 10  1  0
 19  4  1  0
 20  5  1  0
 21 24  2  0
 22 26  1  0
 23 11  2  0
 24 12  1  0
 25 16  1  0
 26 25  1  0
 27 28  1  0
 28 20  2  0
  4  3  1  0
 19 27  2  0
 14  7  1  0
 23 21  1  0
M  END