
  SciTegic10011413212D

 41 44  0  0  0  0            999 V2000
   13.5539   -6.3576    0.0000 C   0  0
   14.2672   -5.9490    0.0000 C   0  0
   13.5539   -7.1789    0.0000 O   0  0
   12.8449   -7.5875    0.0000 N   0  0
   12.8449   -8.4087    0.0000 C   0  0
   13.5497   -8.8275    0.0000 C   0  0
   13.5275   -9.6459    0.0000 C   0  0
   14.2303  -10.0726    0.0000 C   0  0
   14.9454   -9.6782    0.0000 C   0  0
   14.9632   -8.8506    0.0000 C   0  0
   14.2635   -8.4296    0.0000 C   0  0
   15.6787   -8.4527    0.0000 O   0  0
   15.6505  -10.0994    0.0000 O   0  0
   14.9740   -6.3647    0.0000 C   0  0
   15.6865   -5.9530    0.0000 C   0  0
   15.6873   -5.1344    0.0000 C   0  0
   14.9707   -4.7220    0.0000 C   0  0
   14.2626   -5.1371    0.0000 C   0  0
   12.1358   -7.1789    0.0000 C   0  0
   12.1392   -6.3561    0.0000 O   0  0
   11.4321   -5.9477    0.0000 C   0  0  1  0  0  0
   10.7195   -6.3551    0.0000 C   0  0  2  0  0  0
   10.7164   -7.1738    0.0000 C   0  0  1  0  0  0
   11.4261   -7.5890    0.0000 C   0  0  1  0  0  0
   10.0053   -7.5828    0.0000 O   0  0
   10.0127   -5.9426    0.0000 O   0  0
   11.4328   -5.1263    0.0000 C   0  0
   12.1482   -4.7218    0.0000 O   0  0
   11.4251   -8.4103    0.0000 O   0  0
   10.0133   -5.1213    0.0000 C   0  0  2  0  0  0
   10.7279   -4.7195    0.0000 O   0  0
   10.7314   -3.9038    0.0000 C   0  0  1  0  0  0
   10.0275   -3.4853    0.0000 C   0  0  1  0  0  0
    9.3134   -3.8921    0.0000 C   0  0  1  0  0  0
    9.3072   -4.7174    0.0000 C   0  0  1  0  0  0
    8.5964   -5.1227    0.0000 O   0  0
    8.6047   -3.4757    0.0000 O   0  0
   10.0327   -2.6681    0.0000 O   0  0
   11.4452   -3.4992    0.0000 C   0  0
   11.4504   -2.6778    0.0000 O   0  0
   10.6844   -5.6048    0.0000 H   0  0
  1  2  1  0
  1  3  1  0
  3  4  1  0
  4  5  1  0
  5  6  1  0
  6  7  2  0
  7  8  1  0
  8  9  2  0
  9 10  1  0
 10 11  2  0
 11  6  1  0
 10 12  1  0
  9 13  1  0
  2 14  2  0
 14 15  1  0
 15 16  2  0
 16 17  1  0
 17 18  2  0
 18  2  1  0
 19  4  1  0
 19 20  1  0
 19 24  1  0
 20 21  1  0
 21 22  1  0
 22 23  1  0
 23 24  1  0
 23 25  1  1
 22 26  1  0
 21 27  1  1
 27 28  1  0
 24 29  1  6
 30 26  1  1
 30 31  1  0
 30 35  1  0
 31 32  1  0
 32 33  1  0
 33 34  1  0
 34 35  1  0
 35 36  1  6
 34 37  1  1
 33 38  1  1
 32 39  1  1
 39 40  1  0
 22 41  1  1
M  END