
  SciTegic09261414532D

 43 49  0  0  0  0            999 V2000
   12.6609   -1.1886    0.0000 C   0  0
   12.6598   -2.0081    0.0000 C   0  0
   13.3678   -2.4171    0.0000 C   0  0
   13.3660   -0.7797    0.0000 C   0  0
   14.0747   -1.1850    0.0000 C   0  0
   14.0749   -2.0082    0.0000 C   0  0
   14.8579   -2.2624    0.0000 N   0  0
   15.3416   -1.5962    0.0000 C   0  0
   14.8575   -0.9305    0.0000 N   0  0
   15.1106   -3.0395    0.0000 C   0  0
   16.1555   -1.5945    0.0000 C   0  0
   16.5638   -2.3037    0.0000 C   0  0
   17.3802   -2.3038    0.0000 C   0  0
   17.7894   -1.5954    0.0000 C   0  0
   17.3761   -0.8855    0.0000 C   0  0
   16.5611   -0.8889    0.0000 C   0  0
   18.6066   -1.5940    0.0000 O   0  0
   19.0164   -2.3010    0.0000 C   0  0
   19.8335   -2.2997    0.0000 C   0  0
   20.2433   -3.0067    0.0000 N   0  0
   19.9121   -3.7487    0.0000 C   0  0
   20.5199   -4.2952    0.0000 N   0  0
   21.0556   -3.0864    0.0000 C   0  0
   21.2231   -3.8827    0.0000 C   0  0
   21.9951   -4.1341    0.0000 C   0  0
   22.6001   -3.5904    0.0000 C   0  0
   22.4280   -2.7919    0.0000 C   0  0
   21.6563   -2.5441    0.0000 C   0  0
   19.2058   -4.1559    0.0000 C   0  0
   18.4992   -3.7432    0.0000 C   0  0
   17.7906   -4.1488    0.0000 C   0  0
   17.7874   -4.9668    0.0000 C   0  0
   18.4987   -5.3776    0.0000 C   0  0
   19.2044   -4.9697    0.0000 C   0  0
   14.5640   -3.6469    0.0000 C   0  0
   13.7664   -3.4759    0.0000 C   0  0
   13.2200   -4.0825    0.0000 C   0  0
   13.4726   -4.8606    0.0000 C   0  0
   14.2767   -5.0286    0.0000 C   0  0
   14.8196   -4.4206    0.0000 C   0  0
   20.2410   -1.5913    0.0000 C   0  0
   21.0581   -1.5899    0.0000 C   0  0
   19.8312   -0.8842    0.0000 C   0  0
  1  2  2  0
  2  3  1  0
  3  6  2  0
  5  4  2  0
  4  1  1  0
  5  6  1  0
  6  7  1  0
  7  8  1  0
  8  9  2  0
  9  5  1  0
  7 10  1  0
 11 12  2  0
 12 13  1  0
 13 14  2  0
 14 15  1  0
 15 16  2  0
 16 11  1  0
  8 11  1  0
 14 17  1  0
 17 18  1  0
 18 19  1  0
 19 20  1  0
 20 21  1  0
 21 22  2  0
 22 24  1  0
 23 20  1  0
 23 24  2  0
 24 25  1  0
 25 26  2  0
 26 27  1  0
 27 28  2  0
 28 23  1  0
 29 30  2  0
 30 31  1  0
 31 32  2  0
 32 33  1  0
 33 34  2  0
 34 29  1  0
 21 29  1  0
 10 35  1  0
 35 36  2  0
 36 37  1  0
 37 38  2  0
 38 39  1  0
 39 40  2  0
 40 35  1  0
 19 41  1  0
 41 42  1  0
 41 43  1  0
M  END