
          11280715132D 1   1.00000     0.00000     0

 28 30  0     1  0            999 V2000
    5.7667   -3.5667    0.0000 N   0  0  3  0  0  0           0  0  0
    5.0917   -4.0667    0.0000 C   0  0  0  0  0  0           0  0  0
    6.5167   -3.9042    0.0000 C   0  0  3  0  0  0           0  0  0
    5.6792   -2.7542    0.0000 C   0  0  0  0  0  0           0  0  0
    3.6792   -2.3042    0.0000 C   0  0  0  0  0  0           0  0  0
    7.1792   -3.4167    0.0000 C   0  0  0  0  0  0           0  0  0
    7.0917   -2.5917    0.0000 C   0  0  0  0  0  0           0  0  0
    4.2417   -2.9042    0.0000 C   0  0  0  0  0  0           0  0  0
    4.3292   -3.7292    0.0000 C   0  0  2  0  0  0           0  0  0
    6.5917   -4.7292    0.0000 C   0  0  0  0  0  0           0  0  0
    6.3417   -2.2667    0.0000 C   0  0  0  0  0  0           0  0  0
    2.8667   -2.4792    0.0000 C   0  0  0  0  0  0           0  0  0
    3.9292   -1.5167    0.0000 C   0  0  0  0  0  0           0  0  0
    5.1792   -4.8917    0.0000 O   0  0  0  0  0  0           0  0  0
    3.3792   -0.9042    0.0000 C   0  0  0  0  0  0           0  0  0
    2.3167   -1.8667    0.0000 C   0  0  0  0  0  0           0  0  0
    7.7667   -2.1042    0.0000 C   0  0  0  0  0  0           0  0  0
    2.5667   -1.0792    0.0000 C   0  0  0  0  0  0           0  0  0
    7.3542   -5.0667    0.0000 O   0  0  0  0  0  0           0  0  0
    6.2542   -1.4417    0.0000 C   0  0  0  0  0  0           0  0  0
    3.6667   -4.2167    0.0000 N   0  0  0  0  0  0           0  0  0
    7.6792   -1.2917    0.0000 C   0  0  0  0  0  0           0  0  0
    5.9292   -5.2167    0.0000 O   0  0  0  0  0  0           0  0  0
    6.9292   -0.9542    0.0000 C   0  0  0  0  0  0           0  0  0
    8.2667   -0.7042    0.0000 F   0  0  0  0  0  0           0  0  0
    2.0042   -0.4667    0.0000 O   0  0  0  0  0  0           0  0  0
    2.6167   -3.2667    0.0000 C   0  0  0  0  0  0           0  0  0
    4.7417   -1.3292    0.0000 C   0  0  0  0  0  0           0  0  0
  2  1  1  0     0  0
  3  1  1  0     0  0
  4  1  1  0     0  0
  5  8  1  0     0  0
  6  3  1  0     0  0
  7 11  2  0     0  0
  9  8  1  1     0  0
  9  2  1  0     0  0
 10  3  1  0     0  0
 11  4  1  0     0  0
 12  5  1  0     0  0
 13  5  2  0     0  0
 14  2  2  0     0  0
 15 13  1  0     0  0
 16 12  2  0     0  0
 17  7  1  0     0  0
 18 15  2  0     0  0
 19 10  2  0     0  0
 20 11  1  0     0  0
 21  9  1  0     0  0
 22 24  1  0     0  0
 23 10  1  0     0  0
 24 20  2  0     0  0
 25 22  1  0     0  0
 26 18  1  0     0  0
 27 12  1  0     0  0
 28 13  1  0     0  0
  7  6  1  0     0  0
 17 22  2  0     0  0
 16 18  1  0     0  0
M  END