
  SciTegic03291108582D

  9 10  0  0  0  0            999 V2000
    0.7294    1.0021    0.0000 N   0  0
   -0.8398   -0.3328    0.0000 N   0  0
    1.2143    0.3346    0.0000 N   0  0
   -1.3248    0.3346    0.0000 N   0  0
   -0.0552   -0.0779    0.0000 C   0  0
   -0.0552    0.7471    0.0000 C   0  0
    0.7294   -0.3328    0.0000 C   0  0
   -0.8398    1.0021    0.0000 C   0  0
    0.9843   -1.1174    0.0000 C   0  0
  1  3  1  0
  1  6  1  0
  2  4  1  0
  2  5  2  0
  3  7  2  0
  4  8  1  0
  5  6  1  0
  5  7  1  0
  6  8  2  0
  7  9  1  0
M  END