
          11280714542D 1   1.00000     0.00000     0

 31 33  0     0  0            999 V2000
    2.4125   -0.9167    0.0000 N   0  0  0  0  0  0           0  0  0
    2.8250   -0.2042    0.0000 C   0  0  0  0  0  0           0  0  0
    2.2667    0.4083    0.0000 S   0  0  0  0  0  0           0  0  0
    1.5167    0.0708    0.0000 C   0  0  0  0  0  0           0  0  0
    5.2792    0.0583    0.0000 C   0  0  0  0  0  0           0  0  0
    6.1042    0.1458    0.0000 C   0  0  3  0  0  0           0  0  0
    1.6042   -0.7542    0.0000 C   0  0  0  0  0  0           0  0  0
    4.7917    0.7208    0.0000 C   0  0  0  0  0  0           0  0  0
    3.6417   -0.1167    0.0000 C   0  0  0  0  0  0           0  0  0
    4.9417   -0.7000    0.0000 C   0  0  0  0  0  0           0  0  0
    3.9750    0.6333    0.0000 C   0  0  0  0  0  0           0  0  0
   -1.3458    1.7208    0.0000 C   0  0  0  0  0  0           0  0  0
    0.8042    0.4833    0.0000 C   0  0  0  0  0  0           0  0  0
   -4.2083    1.7208    0.0000 C   0  0  0  0  0  0           0  0  0
   -2.0583    1.3000    0.0000 C   0  0  0  0  0  0           0  0  0
   -2.7750    1.7208    0.0000 O   0  0  0  0  0  0           0  0  0
    4.1292   -0.7875    0.0000 C   0  0  0  0  0  0           0  0  0
    0.0917    0.0625    0.0000 S   0  0  0  0  0  0           0  0  0
   -0.6250    1.3083    0.0000 C   0  0  0  0  0  0           0  0  0
   -4.8333    1.1833    0.0000 O   0  0  0  0  0  0           0  0  0
    6.7167   -0.4625    0.0000 F   0  0  0  0  0  0           0  0  0
    6.5750    0.8708    0.0000 F   0  0  0  0  0  0           0  0  0
    6.8500    0.2250    0.0000 F   0  0  0  0  0  0           0  0  0
   -2.0583    0.4750    0.0000 C   0  0  0  0  0  0           0  0  0
   -0.6250    0.4750    0.0000 C   0  0  0  0  0  0           0  0  0
   -3.4875    1.3083    0.0000 C   0  0  0  0  0  0           0  0  0
    5.1250    1.4750    0.0000 F   0  0  0  0  0  0           0  0  0
   -4.3458    2.5250    0.0000 O   0  0  0  0  0  0           0  0  0
   -1.3458    0.0625    0.0000 C   0  0  0  0  0  0           0  0  0
    0.9917   -1.3042    0.0000 C   0  0  0  0  0  0           0  0  0
   -1.3458    2.5458    0.0000 C   0  0  0  0  0  0           0  0  0
  2  1  2  0     0  0
  3  2  1  0     0  0
  4  7  2  0     0  0
  5 10  2  0     0  0
  6  5  1  0     0  0
  7  1  1  0     0  0
  8 11  2  0     0  0
  9  2  1  0     0  0
 10 17  1  0     0  0
 11  9  1  0     0  0
 12 19  2  0     0  0
 13  4  1  0     0  0
 14 26  1  0     0  0
 15 24  2  0     0  0
 16 15  1  0     0  0
 17  9  2  0     0  0
 18 13  1  0     0  0
 19 25  1  0     0  0
 20 14  2  0     0  0
 21  6  1  0     0  0
 22  6  1  0     0  0
 23  6  1  0     0  0
 24 29  1  0     0  0
 25 18  1  0     0  0
 26 16  1  0     0  0
 27  8  1  0     0  0
 28 14  1  0     0  0
 29 25  2  0     0  0
 30  7  1  0     0  0
 31 12  1  0     0  0
  4  3  1  0     0  0
  5  8  1  0     0  0
 15 12  1  0     0  0
M  END