
  SciTegic03161210572D

 33 33  0  0  0  0            999 V2000
   12.7042   -1.2375    0.0000 F   0  0
   13.1208   -1.9542    0.0000 C   0  0
   13.5332   -1.2350    0.0000 F   0  0
   12.8125   -3.0792    0.0000 F   0  0
   12.4042   -2.3667    0.0000 C   0  0
   11.9913   -3.0765    0.0000 F   0  0
   11.2750   -1.2375    0.0000 F   0  0
   11.6917   -1.9542    0.0000 C   0  0
   12.1040   -1.2350    0.0000 F   0  0
   11.3833   -3.0792    0.0000 F   0  0
   10.9750   -2.3667    0.0000 C   0  0
   10.5621   -3.0765    0.0000 F   0  0
    9.8458   -1.2375    0.0000 F   0  0
   10.2625   -1.9542    0.0000 C   0  0
   10.6748   -1.2350    0.0000 F   0  0
    9.9542   -3.0792    0.0000 F   0  0
    9.5458   -2.3667    0.0000 C   0  0
    9.1330   -3.0765    0.0000 F   0  0
    8.1208   -2.3708    0.0000 N   0  0
    8.8353   -1.9583    0.0000 C   0  0
    8.8353   -1.1333    0.0000 O   0  0
   13.8366   -2.3708    0.0000 C   0  0
   14.5511   -1.9583    0.0000 N   0  0
   13.8366   -3.1958    0.0000 O   0  0
   15.2655   -2.3708    0.0000 O   0  0
    7.4064   -1.9583    0.0000 C   0  0
    7.4113   -1.1323    0.0000 C   0  0
    6.6977   -0.7198    0.0000 C   0  0
    5.9822   -1.1324    0.0000 C   0  0
    5.9849   -1.9617    0.0000 C   0  0
    6.6991   -2.3703    0.0000 C   0  0
    5.2678   -0.7212    0.0000 C   0  0
    4.5527   -0.3096    0.0000 N   0  0
 19 20  1  0
 20 17  1  0
  8  7  1  0
 20 21  2  0
 17 14  1  0
 14 11  1  0
 11  8  1  0
  8  5  1  0
  5  2  1  0
 14 13  1  0
  2 22  1  0
 15 14  1  0
 22 23  1  0
  9  8  1  0
 22 24  2  0
  5  4  1  0
 23 25  1  0
  6  5  1  0
 19 26  1  0
 17 16  1  0
 26 27  2  0
 18 17  1  0
 27 28  1  0
 28 29  2  0
 11 10  1  0
 29 30  1  0
 12 11  1  0
 30 31  2  0
 31 26  1  0
  2  1  1  0
  3  2  1  0
 32 33  3  0
 29 32  1  0
M  END