
  SciTegic08011209522D

 31 35  0  0  0  0            999 V2000
   -1.4025  -23.8252    0.0000 O   0  0
   -1.8103  -24.5409    0.0000 S   0  0
   -0.9865  -24.5362    0.0000 O   0  0
   -4.6707  -22.0689    0.0000 C   0  0
   -4.6719  -22.8953    0.0000 C   0  0
   -3.9580  -23.3076    0.0000 C   0  0
   -3.9598  -21.6566    0.0000 C   0  0
   -3.2453  -22.0653    0.0000 C   0  0
   -3.2445  -22.8953    0.0000 C   0  0
   -2.5264  -23.3078    0.0000 C   0  0
   -1.8087  -22.8915    0.0000 C   0  0
   -1.8135  -22.0584    0.0000 C   0  0
   -2.5321  -21.6496    0.0000 C   0  0
   -2.5364  -20.8256    0.0000 O   0  0
   -1.1024  -21.6421    0.0000 S   0  0
   -2.5247  -24.1318    0.0000 N   0  0
   -0.3863  -22.0497    0.0000 C   0  0
   -0.2981  -22.8681    0.0000 N   0  0
    0.5089  -23.0345    0.0000 C   0  0
    0.9165  -22.3183    0.0000 N   0  0
    0.3614  -21.7095    0.0000 N   0  0
   -1.8145  -25.3649    0.0000 C   0  0
   -2.5324  -25.7714    0.0000 C   0  0
   -2.5369  -26.5947    0.0000 C   0  0
   -1.1059  -25.7764    0.0000 C   0  0
   -1.1069  -26.5983    0.0000 C   0  0
   -1.8251  -27.0107    0.0000 C   0  0
   -1.8261  -27.8371    0.0000 C   0  0
   -1.1095  -28.2520    0.0000 C   0  0
   -0.3905  -27.8346    0.0000 C   0  0
   -0.3931  -27.0096    0.0000 C   0  0
  2  1  2  0
 10 16  1  0
 16  2  1  0
  4  5  2  0
 15 17  1  0
 17 18  2  0
  8  9  1  0
  3  2  2  0
  9 10  1  0
  5  6  1  0
 18 19  1  0
 19 20  2  0
 20 21  1  0
 21 17  1  0
 10 11  2  0
  2 22  1  0
  6  9  2  0
 22 23  2  0
 11 12  1  0
 23 24  1  0
 24 27  2  0
 26 25  2  0
 25 22  1  0
 12 13  2  0
 13  8  1  0
 26 27  1  0
  8  7  2  0
 27 28  1  0
 13 14  1  0
 28 29  2  0
  7  4  1  0
 29 30  1  0
 12 15  1  0
 30 31  2  0
 31 26  1  0
M  END