
          11280715352D 1   1.00000     0.00000     0

 32 34  0     0  0            999 V2000
   -2.0708   -3.5667    0.0000 C   0  0  0  0  0  0           0  0  0
   -1.5708   -4.4292    0.0000 N   0  0  0  0  0  0           0  0  0
   -1.0625   -4.1292    0.0000 C   0  0  0  0  0  0           0  0  0
   -2.0708   -4.1417    0.0000 C   0  0  0  0  0  0           0  0  0
   -1.0708   -3.5542    0.0000 C   0  0  0  0  0  0           0  0  0
    0.9375   -3.2125    0.0000 C   0  0  3  0  0  0           0  0  0
    1.5125   -3.2125    0.0000 N   0  0  0  0  0  0           0  0  0
   -0.0250   -4.7375    0.0000 N   0  0  0  0  0  0           0  0  0
   -0.5458   -4.4375    0.0000 C   0  0  0  0  0  0           0  0  0
    1.8042   -3.7042    0.0000 C   0  0  0  0  0  0           0  0  0
   -2.5708   -3.2792    0.0000 C   0  0  0  0  0  0           0  0  0
   -1.0833   -2.4042    0.0000 C   0  0  3  0  0  0           0  0  0
    0.3625   -3.2125    0.0000 C   0  0  3  0  0  0           0  0  0
   -2.5750   -2.7000    0.0000 O   0  0  0  0  0  0           0  0  0
   -1.0833   -1.8292    0.0000 N   0  0  0  0  0  0           0  0  0
    1.5125   -4.2042    0.0000 O   0  0  0  0  0  0           0  0  0
   -0.0958   -2.9292    0.0000 C   0  0  0  0  0  0           0  0  0
    0.1542   -2.5792    0.0000 C   0  0  0  0  0  0           0  0  0
   -2.0833   -1.8375    0.0000 C   0  0  3  0  0  0           0  0  0
   -0.8833   -3.0417    0.0000 C   0  0  0  0  0  0           0  0  0
   -0.5833   -2.6917    0.0000 C   0  0  0  0  0  0           0  0  0
   -2.0750   -2.4125    0.0000 C   0  0  0  0  0  0           0  0  0
   -1.5833   -1.5417    0.0000 C   0  0  0  0  0  0           0  0  0
    2.6667   -4.2042    0.0000 Br  0  0  0  0  0  0           0  0  0
   -2.5708   -4.4292    0.0000 C   0  0  0  0  0  0           0  0  0
   -2.5833   -1.5500    0.0000 O   0  0  0  0  0  0           0  0  0
    2.3792   -3.7042    0.0000 C   0  0  0  0  0  0           0  0  0
    0.9292   -3.7875    0.0000 C   0  0  0  0  0  0           0  0  0
    0.9292   -2.6375    0.0000 C   0  0  0  0  0  0           0  0  0
   -3.0708   -4.1417    0.0000 C   0  0  0  0  0  0           0  0  0
   -3.0708   -3.5667    0.0000 C   0  0  0  0  0  0           0  0  0
   -1.6583   -2.4042    0.0000 C   0  0  0  0  0  0           0  0  0
  2  4  1  0     0  0
  3  5  2  0     0  0
  4  1  1  0     0  0
  5  1  1  0     0  0
  6 13  1  0     0  0
  7  6  1  0     0  0
  8  9  3  0     0  0
  9  3  1  0     0  0
 10  7  1  0     0  0
 11  1  2  0     0  0
 12 15  1  0     0  0
 13 18  1  0     0  0
 14 11  1  0     0  0
 15 23  1  0     0  0
 16 10  2  0     0  0
 17 20  1  0     0  0
 18 21  1  0     0  0
 19 22  1  0     0  0
 20 12  1  0     0  0
 21 12  1  0     0  0
 22 14  1  0     0  0
 23 19  1  0     0  0
 24 27  1  0     0  0
 25  4  2  0     0  0
 26 19  1  0     0  0
 27 10  1  0     0  0
 28  6  1  0     0  0
 29  6  1  0     0  0
 30 31  2  0     0  0
 31 11  1  0     0  0
 32 12  1  0     0  0
  3  2  1  0     0  0
 30 25  1  0     0  0
 17 13  1  0     0  0
M  END