
          11280715122D 1   1.00000     0.00000     0

 28 30  0     0  0            999 V2000
    3.9792   -3.4292    0.0000 C   0  0  0  0  0  0           0  0  0
    3.2667   -3.0167    0.0000 C   0  0  0  0  0  0           0  0  0
   -0.7750   -3.5375    0.0000 N   0  0  3  0  0  0           0  0  0
    3.9792   -4.2542    0.0000 C   0  0  0  0  0  0           0  0  0
   -1.4958   -3.1250    0.0000 C   0  0  0  0  0  0           0  0  0
    0.5875   -4.4625    0.0000 N   0  0  3  0  0  0           0  0  0
    3.2667   -2.1917    0.0000 N   0  0  3  0  0  0           0  0  0
    4.6917   -4.6667    0.0000 N   0  0  0  0  0  0           0  0  0
    2.5542   -3.4292    0.0000 O   0  0  0  0  0  0           0  0  0
   -0.8333   -4.3542    0.0000 C   0  0  0  0  0  0           0  0  0
   -0.0333   -3.1667    0.0000 C   0  0  0  0  0  0           0  0  0
   -1.4958   -2.2917    0.0000 C   0  0  0  0  0  0           0  0  0
    3.2750   -4.6750    0.0000 N   0  0  0  0  0  0           0  0  0
    0.6417   -3.6375    0.0000 C   0  0  0  0  0  0           0  0  0
   -0.1583   -4.8167    0.0000 C   0  0  0  0  0  0           0  0  0
    4.6917   -3.0167    0.0000 C   0  0  0  0  0  0           0  0  0
   -0.7833   -1.8792    0.0000 O   0  0  0  0  0  0           0  0  0
    1.2667   -4.9250    0.0000 C   0  0  0  0  0  0           0  0  0
    1.9792   -4.5042    0.0000 C   0  0  0  0  0  0           0  0  0
   -2.2083   -3.5375    0.0000 C   0  0  0  0  0  0           0  0  0
    5.4125   -4.2542    0.0000 C   0  0  0  0  0  0           0  0  0
    2.5625   -5.0875    0.0000 C   0  0  0  0  0  0           0  0  0
    2.5542   -1.7792    0.0000 C   0  0  0  0  0  0           0  0  0
    3.9792   -1.7792    0.0000 C   0  0  0  0  0  0           0  0  0
   -2.2083   -1.8792    0.0000 C   0  0  0  0  0  0           0  0  0
    5.4125   -3.4292    0.0000 C   0  0  0  0  0  0           0  0  0
   -2.9208   -3.1250    0.0000 C   0  0  0  0  0  0           0  0  0
   -2.9208   -2.2917    0.0000 C   0  0  0  0  0  0           0  0  0
  2  1  1  0     0  0
  3 10  1  0     0  0
  4  1  2  0     0  0
  5  3  1  0     0  0
  6 18  1  0     0  0
  7  2  1  0     0  0
  8  4  1  0     0  0
  9  2  2  0     0  0
 10 15  1  0     0  0
 11 14  1  0     0  0
 12  5  1  0     0  0
 13  4  1  0     0  0
 14  6  1  0     0  0
 15  6  1  0     0  0
 16  1  1  0     0  0
 17 12  1  0     0  0
 18 19  1  0     0  0
 19 22  1  0     0  0
 20  5  2  0     0  0
 21 26  1  0     0  0
 22 13  1  0     0  0
 23  7  1  0     0  0
 24  7  1  0     0  0
 25 12  2  0     0  0
 26 16  2  0     0  0
 27 20  1  0     0  0
 28 27  2  0     0  0
 21  8  2  0     0  0
  3 11  1  0     0  0
 28 25  1  0     0  0
M  END