
  SciTegic09291413392D

 14 15  0  0  0  0            999 V2000
   27.5767   -2.9592    0.0000 C   0  0
   27.5756   -3.7787    0.0000 C   0  0
   28.2836   -4.1877    0.0000 C   0  0
   28.9933   -3.7782    0.0000 C   0  0
   28.9905   -2.9556    0.0000 C   0  0
   28.2818   -2.5503    0.0000 C   0  0
   29.6966   -2.5443    0.0000 N   0  0
   26.8729   -2.5465    0.0000 C   0  0
   26.8817   -1.7297    0.0000 C   0  0
   26.1787   -1.3171    0.0000 N   0  0
   25.4685   -1.7204    0.0000 C   0  0
   25.4656   -2.5404    0.0000 N   0  0
   26.1692   -2.9493    0.0000 C   0  0
   24.7630   -1.3080    0.0000 N   0  0
  1  2  2  0
  2  3  1  0
  3  4  2  0
  4  5  1  0
  5  6  2  0
  6  1  1  0
  5  7  1  0
  1  8  1  0
  8  9  2  0
  9 10  1  0
 10 11  2  0
 11 12  1  0
 12 13  2  0
 13  8  1  0
 11 14  1  0
M  END