
          11280715182D 1   1.00000     0.00000     0

 41 45  0     0  0            999 V2000
    3.7917   -3.3667    0.0000 N   0  0  3  0  0  0           0  0  0
    3.7917   -1.7167    0.0000 N   0  0  3  0  0  0           0  0  0
    3.0792   -2.9542    0.0000 C   0  0  3  0  0  0           0  0  0
    3.7917   -0.8917    0.0000 C   0  0  0  0  0  0           0  0  0
    4.5042   -0.4792    0.0000 C   0  0  0  0  0  0           0  0  0
    3.0792   -2.1292    0.0000 C   0  0  0  0  0  0           0  0  0
    3.7917   -4.1917    0.0000 C   0  0  0  0  0  0           0  0  0
    2.3667   -3.3667    0.0000 C   0  0  0  0  0  0           0  0  0
    4.5042   -2.9542    0.0000 C   0  0  0  0  0  0           0  0  0
    7.3667   -5.4292    0.0000 N   0  0  3  0  0  0           0  0  0
    1.6542   -2.9542    0.0000 C   0  0  0  0  0  0           0  0  0
    0.9417   -3.3750    0.0000 C   0  0  0  0  0  0           0  0  0
    4.5042   -2.1292    0.0000 C   0  0  0  0  0  0           0  0  0
    5.0667   -1.0792    0.0000 C   0  0  0  0  0  0           0  0  0
    4.7417    0.3083    0.0000 C   0  0  0  0  0  0           0  0  0
    3.0792   -0.4792    0.0000 O   0  0  0  0  0  0           0  0  0
    0.9417   -4.1917    0.0000 C   0  0  0  0  0  0           0  0  0
    4.5167   -4.6042    0.0000 C   0  0  0  0  0  0           0  0  0
    3.0792   -4.6042    0.0000 O   0  0  0  0  0  0           0  0  0
    2.3667   -4.1917    0.0000 C   0  0  0  0  0  0           0  0  0
    5.2292   -4.1917    0.0000 N   0  0  0  0  0  0           0  0  0
    5.5417    0.4958    0.0000 C   0  0  0  0  0  0           0  0  0
    5.8667   -0.8917    0.0000 C   0  0  0  0  0  0           0  0  0
    1.6542   -4.6125    0.0000 C   0  0  0  0  0  0           0  0  0
    8.0792   -5.8417    0.0000 C   0  0  0  0  0  0           0  0  0
    6.6542   -4.1875    0.0000 C   0  0  0  0  0  0           0  0  0
    5.9417   -5.4292    0.0000 C   0  0  0  0  0  0           0  0  0
    6.6542   -5.8417    0.0000 C   0  0  0  0  0  0           0  0  0
    7.3667   -4.6042    0.0000 C   0  0  0  0  0  0           0  0  0
    5.9417   -4.6042    0.0000 C   0  0  3  0  0  0           0  0  0
    6.1042   -0.1042    0.0000 C   0  0  0  0  0  0           0  0  0
    0.2292   -2.9625    0.0000 Cl  0  0  0  0  0  0           0  0  0
    0.2292   -4.6125    0.0000 Cl  0  0  0  0  0  0           0  0  0
    8.7917   -5.4375    0.0000 C   0  0  0  0  0  0           0  0  0
    5.7792    1.2875    0.0000 C   0  0  0  0  0  0           0  0  0
    6.4292   -1.4917    0.0000 C   0  0  0  0  0  0           0  0  0
    9.5667   -5.7292    0.0000 C   0  0  0  0  0  0           0  0  0
    8.6542   -4.6167    0.0000 C   0  0  0  0  0  0           0  0  0
   10.2042   -5.2042    0.0000 C   0  0  0  0  0  0           0  0  0
    9.3042   -4.0917    0.0000 C   0  0  0  0  0  0           0  0  0
   10.0667   -4.3917    0.0000 C   0  0  0  0  0  0           0  0  0
  2 13  1  0     0  0
  3  1  1  0     0  0
  4  2  1  0     0  0
  5  4  1  0     0  0
  6  3  1  0     0  0
  7  1  1  0     0  0
  3  8  1  0     0  0
  9  1  1  0     0  0
 10 28  1  0     0  0
 11  8  2  0     0  0
 12 11  1  0     0  0
 13  9  1  0     0  0
 14  5  2  0     0  0
 15  5  1  0     0  0
 16  4  2  0     0  0
 17 24  1  0     0  0
 18  7  1  0     0  0
 19  7  2  0     0  0
 20  8  1  0     0  0
 21 18  1  0     0  0
 22 15  2  0     0  0
 23 14  1  0     0  0
 24 20  2  0     0  0
 25 10  1  0     0  0
 26 30  1  0     0  0
 27 30  1  0     0  0
 28 27  1  0     0  0
 29 26  1  0     0  0
 30 21  1  0     0  0
 31 22  1  0     0  0
 32 12  1  0     0  0
 33 17  1  0     0  0
 34 25  1  0     0  0
 35 22  1  0     0  0
 36 23  1  0     0  0
 37 34  2  0     0  0
 38 34  1  0     0  0
 39 37  1  0     0  0
 40 38  2  0     0  0
 41 40  1  0     0  0
  2  6  1  0     0  0
 17 12  2  0     0  0
 10 29  1  0     0  0
 31 23  2  0     0  0
 41 39  2  0     0  0
M  END