
          11280715372D 1   1.00000     0.00000     0

 37 38  0     1  0            999 V2000
    2.8792   -2.8667    0.0000 P   0  0  3  0  0  0           0  0  0
    6.0167   -5.0667    0.0000 C   0  0  0  0  0  0           0  0  0
    7.3292   -4.1792    0.0000 C   0  0  0  0  0  0           0  0  0
    6.3667   -4.5917    0.0000 N   0  0  0  0  0  0           0  0  0
    7.9292   -4.2417    0.0000 N   0  0  0  0  0  0           0  0  0
    6.9792   -4.6542    0.0000 C   0  0  1  0  0  0           0  0  0
    5.4167   -5.0042    0.0000 C   0  0  1  0  0  0           0  0  0
    5.0667   -5.4792    0.0000 N   0  0  0  0  0  0           0  0  0
    4.4542   -5.4167    0.0000 C   0  0  0  0  0  0           0  0  0
    3.4667   -2.7542    0.0000 O   0  0  0  0  0  0           0  0  0
    8.2917   -3.7667    0.0000 C   0  0  2  0  0  0           0  0  0
    2.7667   -2.2792    0.0000 O   0  0  0  0  0  0           0  0  0
    8.8792   -3.8292    0.0000 C   0  0  0  0  0  0           0  0  0
    7.0917   -3.6292    0.0000 O   0  0  0  0  0  0           0  0  0
    6.2667   -5.6292    0.0000 O   0  0  0  0  0  0           0  0  0
    5.1667   -4.4417    0.0000 C   0  0  0  0  0  0           0  0  0
    7.2167   -5.2167    0.0000 C   0  0  0  0  0  0           0  0  0
    4.2167   -4.8667    0.0000 O   0  0  0  0  0  0           0  0  0
    2.2792   -2.9917    0.0000 O   0  0  0  0  0  0           0  0  0
    2.9917   -3.4667    0.0000 O   0  0  0  0  0  0           0  0  0
    9.3667   -3.4792    0.0000 C   0  0  0  0  0  0           0  0  0
    8.9542   -4.4292    0.0000 C   0  0  0  0  0  0           0  0  0
    3.8667   -3.2167    0.0000 C   0  0  0  0  0  0           0  0  0
    4.6542   -4.1417    0.0000 C   0  0  0  0  0  0           0  0  0
    9.9167   -3.7292    0.0000 C   0  0  0  0  0  0           0  0  0
    9.4917   -4.6792    0.0000 C   0  0  0  0  0  0           0  0  0
    9.9792   -4.3167    0.0000 C   0  0  0  0  0  0           0  0  0
    4.0542   -4.2417    0.0000 C   0  0  0  0  0  0           0  0  0
    4.8542   -3.5667    0.0000 C   0  0  0  0  0  0           0  0  0
    3.6667   -3.7917    0.0000 C   0  0  0  0  0  0           0  0  0
    4.4542   -3.1167    0.0000 C   0  0  0  0  0  0           0  0  0
    7.5917   -5.6792    0.0000 C   0  0  3  0  0  0           0  0  0
    4.1042   -5.8917    0.0000 C   0  0  0  0  0  0           0  0  0
    8.0542   -3.2167    0.0000 C   0  0  0  0  0  0           0  0  0
   10.5292   -4.5667    0.0000 C   0  0  0  0  0  0           0  0  0
    8.1792   -5.5917    0.0000 C   0  0  0  0  0  0           0  0  0
    7.3667   -6.2417    0.0000 C   0  0  0  0  0  0           0  0  0
  2  7  1  0     0  0
  3  6  1  0     0  0
  4  2  1  0     0  0
  5  3  1  0     0  0
  6  4  1  0     0  0
  7 16  1  1     0  0
  8  7  1  0     0  0
  9  8  1  0     0  0
 10  1  1  0     0  0
 11  5  1  0     0  0
 12  1  2  0     0  0
 13 11  1  0     0  0
 14  3  2  0     0  0
 15  2  2  0     0  0
 16 24  1  0     0  0
  6 17  1  6     0  0
 18  9  2  0     0  0
 19  1  1  0     0  0
 20  1  1  0     0  0
 21 13  2  0     0  0
 22 13  1  0     0  0
 23 10  1  0     0  0
 24 29  1  0     0  0
 25 21  1  0     0  0
 26 22  2  0     0  0
 27 26  1  0     0  0
 28 30  1  0     0  0
 29 31  2  0     0  0
 30 23  2  0     0  0
 31 23  1  0     0  0
 32 17  1  0     0  0
 33  9  1  0     0  0
 11 34  1  1     0  0
 35 27  1  0     0  0
 36 32  1  0     0  0
 37 32  1  0     0  0
 28 24  2  0     0  0
 27 25  2  0     0  0
M  END