
  SciTegic12171313022D

 19 20  0  0  0  0            999 V2000
    6.5940  -16.7197    0.0000 C   0  0
    6.5928  -17.5471    0.0000 C   0  0
    7.3076  -17.9599    0.0000 C   0  0
    8.0239  -17.5466    0.0000 C   0  0
    8.0211  -16.7161    0.0000 C   0  0
    7.3058  -16.3070    0.0000 C   0  0
    7.3034  -15.4821    0.0000 C   0  0
    6.5876  -15.0717    0.0000 C   0  0
    6.5852  -14.2467    0.0000 C   0  0
    5.8744  -15.4863    0.0000 N   0  0
    7.3074  -18.7848    0.0000 O   0  0
    8.7391  -17.9579    0.0000 O   0  0
    8.0165  -15.0675    0.0000 O   0  0
    7.2984  -13.8321    0.0000 C   0  0
    5.1588  -15.0759    0.0000 C   0  0
    5.0676  -14.2524    0.0000 C   0  0
    4.2603  -14.0833    0.0000 C   0  0
    3.8498  -14.7990    0.0000 C   0  0
    4.4037  -15.4103    0.0000 C   0  0
  1  2  2  0
  2  3  1  0
  3  4  2  0
  4  5  1  0
  5  6  2  0
  6  1  1  0
  6  7  1  0
  7  8  1  0
  8  9  1  0
  8 10  1  0
  3 11  1  0
  4 12  1  0
  7 13  1  0
  9 14  1  0
 10 15  1  0
 15 16  1  0
 16 17  1  0
 17 18  1  0
 18 19  1  0
 19 15  1  0
M  END