
  SciTegic11261311332D

 25 26  0  0  0  0            999 V2000
   -1.7567    3.8384    0.0000 O   0  0
   -1.0423    3.4259    0.0000 P   0  0
   -1.4548    2.7114    0.0000 O   0  0
   -0.6298    4.1403    0.0000 O   0  0
   -0.3278    3.0134    0.0000 O   0  0
   -0.3278    2.1884    0.0000 P   0  0
   -1.1528    2.1884    0.0000 O   0  0
    0.4972    2.1884    0.0000 O   0  0
   -0.3278    1.3634    0.0000 O   0  0
    0.3867    0.9509    0.0000 C   0  0
    0.3867    0.1259    0.0000 C   0  0  1  0  0  0
    1.0541   -0.3591    0.0000 O   0  0
   -0.2808   -0.3591    0.0000 C   0  0  1  0  0  0
   -1.0654   -0.1041    0.0000 O   0  0
   -0.0258   -1.1437    0.0000 C   0  0  1  0  0  0
   -0.5107   -1.8111    0.0000 O   0  0
    0.7992   -1.1437    0.0000 C   0  0  2  0  0  0
    1.2841   -1.8111    0.0000 N   0  0
    0.9485   -2.5648    0.0000 C   0  0
    0.1281   -2.6510    0.0000 O   0  0
    1.4335   -3.2322    0.0000 N   0  0
    2.2539   -3.1460    0.0000 C   0  0
    2.7389   -3.8134    0.0000 N   0  0
    2.5895   -2.3923    0.0000 C   0  0
    2.1046   -1.7249    0.0000 C   0  0
  1  2  1  0
  3  2  2  0
  4  2  1  0
  5  2  1  0
  6  5  1  0
  7  6  2  0
  6  8  1  0
  9  6  1  0
 10  9  1  0
 11 10  1  1
 11 12  1  0
 13 11  1  0
 17 12  1  0
 13 14  1  6
 15 13  1  0
 15 16  1  6
 17 15  1  0
 17 18  1  1
 19 18  1  0
 25 18  1  0
 19 20  2  0
 19 21  1  0
 22 21  2  0
 22 23  1  0
 22 24  1  0
 24 25  2  0
M  END