
  CDK    9/16/09,9:58

 20 23  0  0  0  0  0  0  0  0999 V2000
   -5.4234   -5.4355    0.0000 C   0  0  0  0  0  0  0  0  0  0  0  0
   -5.4248   -6.2631    0.0000 C   0  0  0  0  0  0  0  0  0  0  0  0
   -4.7118   -6.6761    0.0000 C   0  0  0  0  0  0  0  0  0  0  0  0
   -4.7137   -5.0228    0.0000 C   0  0  0  0  0  0  0  0  0  0  0  0
   -3.9956   -5.4316    0.0000 C   0  0  0  0  0  0  0  0  0  0  0  0
   -3.9950   -6.2585    0.0000 C   0  0  0  0  0  0  0  0  0  0  0  0
   -3.2084   -6.5136    0.0000 N   0  0  0  0  0  0  0  0  0  0  0  0
   -2.7227   -5.8442    0.0000 C   0  0  0  0  0  0  0  0  0  0  0  0
   -3.2093   -5.1756    0.0000 N   0  0  0  0  0  0  0  0  0  0  0  0
   -1.8978   -5.8436    0.0000 N   0  0  0  0  0  0  0  0  0  0  0  0
   -1.4847   -6.5578    0.0000 C   0  0  0  0  0  0  0  0  0  0  0  0
   -1.8972   -7.2689    0.0000 C   0  0  0  0  0  0  0  0  0  0  0  0
   -1.4877   -7.9809    0.0000 C   0  0  0  0  0  0  0  0  0  0  0  0
   -0.6624   -7.9846    0.0000 C   0  0  0  0  0  0  0  0  0  0  0  0
   -0.6593   -6.5518    0.0000 C   0  0  0  0  0  0  0  0  0  0  0  0
   -0.2513   -7.2685    0.0000 C   0  0  0  0  0  0  0  0  0  0  0  0
    0.5715   -7.2725    0.0000 C   0  0  0  0  0  0  0  0  0  0  0  0
    0.9873   -6.5606    0.0000 C   0  0  0  0  0  0  0  0  0  0  0  0
    0.5743   -5.8431    0.0000 C   0  0  0  0  0  0  0  0  0  0  0  0
   -0.2473   -5.8426    0.0000 C   0  0  0  0  0  0  0  0  0  0  0  0
  4  1  1  0  0  0  0 
  8 10  1  0  0  0  0 
  5  6  1  0  0  0  0 
 11 10  1  6  0  0  0 
 11 12  1  0  0  0  0 
  2  3  1  0  0  0  0 
  3  6  2  0  0  0  0 
 11 15  1  0  0  0  0 
 12 13  1  0  0  0  0 
 13 14  1  0  0  0  0 
 14 16  1  0  0  0  0 
  1  2  2  0  0  0  0 
  5  4  2  0  0  0  0 
 15 16  2  0  0  0  0 
  6  7  1  0  0  0  0 
 16 17  1  0  0  0  0 
  7  8  1  0  0  0  0 
 17 18  2  0  0  0  0 
  8  9  2  0  0  0  0 
 18 19  1  0  0  0  0 
  9  5  1  0  0  0  0 
 19 20  2  0  0  0  0 
 20 15  1  0  0  0  0 
M  END