
          11280714522D 1   1.00000     0.00000     0

 26 28  0     1  0            999 V2000
    5.8042   -4.7167    0.0000 S   0  0  3  0  0  0           0  0  0
    4.7375   -2.0917    0.0000 C   0  0  2  0  0  0           0  0  0
    5.6042   -5.5167    0.0000 C   0  0  0  0  0  0           0  0  0
    6.0250   -3.9250    0.0000 N   0  0  3  0  0  0           0  0  0
    4.7292   -2.9167    0.0000 C   0  0  0  0  0  0           0  0  0
    5.4542   -1.6875    0.0000 N   0  0  3  0  0  0           0  0  0
    4.8125   -5.7417    0.0000 C   0  0  3  0  0  0           0  0  0
    5.4417   -3.3417    0.0000 C   0  0  1  0  0  0           0  0  0
    4.0167   -1.6875    0.0000 C   0  0  0  0  0  0           0  0  0
    5.0042   -4.5042    0.0000 O   0  0  0  0  0  0           0  0  0
    6.6042   -4.9292    0.0000 O   0  0  0  0  0  0           0  0  0
    6.1625   -2.9292    0.0000 C   0  0  0  0  0  0           0  0  0
    6.1667   -2.1042    0.0000 C   0  0  0  0  0  0           0  0  0
    4.0167   -0.8542    0.0000 C   0  0  0  0  0  0           0  0  0
    5.4542   -0.8542    0.0000 C   0  0  0  0  0  0           0  0  0
    4.7375   -0.4292    0.0000 C   0  0  0  0  0  0           0  0  0
    4.0917   -5.9542    0.0000 F   0  0  0  0  0  0           0  0  0
    4.1042   -5.2542    0.0000 F   0  0  0  0  0  0           0  0  0
    4.4667   -6.5375    0.0000 F   0  0  0  0  0  0           0  0  0
    6.8167   -3.7042    0.0000 C   0  0  0  0  0  0           0  0  0
    3.3042   -2.0917    0.0000 C   0  0  0  0  0  0           0  0  0
    3.3042   -0.4417    0.0000 C   0  0  0  0  0  0           0  0  0
    2.5917   -1.6792    0.0000 C   0  0  0  0  0  0           0  0  0
    2.5917   -0.8542    0.0000 C   0  0  0  0  0  0           0  0  0
    4.0167   -2.5042    0.0000 H   0  0  0  0  0  0           0  0  0
    4.7250   -3.7500    0.0000 H   0  0  0  0  0  0           0  0  0
  2  5  1  0     0  0
  3  1  1  0     0  0
  4  1  1  0     0  0
  5  8  1  0     0  0
  6 13  1  0     0  0
  7  3  1  0     0  0
  8  4  1  0     0  0
  9  2  1  0     0  0
 10  1  2  0     0  0
 11  1  2  0     0  0
 12  8  1  0     0  0
 13 12  1  0     0  0
 14  9  1  0     0  0
 15  6  1  0     0  0
 16 15  1  0     0  0
 17  7  1  0     0  0
 18  7  1  0     0  0
 19  7  1  0     0  0
 20  4  1  0     0  0
 21  9  2  0     0  0
 22 14  2  0     0  0
 23 21  1  0     0  0
 24 23  2  0     0  0
  2 25  1  6     0  0
  8 26  1  6     0  0
  2  6  1  0     0  0
 16 14  1  0     0  0
 24 22  1  0     0  0
M  END