
  CDK    9/16/09,9:57

 23 24  0  0  0  0  0  0  0  0999 V2000
   -2.6602   -5.4619    0.0000 C   0  0  0  0  0  0  0  0  0  0  0  0
   -2.6315   -6.2870    0.0000 C   0  0  0  0  0  0  0  0  0  0  0  0
   -1.9083   -6.6761    0.0000 N   0  0  0  0  0  0  0  0  0  0  0  0
   -1.2054   -6.2445    0.0000 C   0  0  0  0  0  0  0  0  0  0  0  0
   -0.4781   -6.6336    0.0000 N   0  0  0  0  0  0  0  0  0  0  0  0
   -1.2300   -5.4194    0.0000 N   0  0  0  0  0  0  0  0  0  0  0  0
    0.2248   -6.2019    0.0000 C   0  0  0  0  0  0  0  0  0  0  0  0
    0.9522   -6.5911    0.0000 C   0  0  0  0  0  0  0  0  0  0  0  0
    0.2002   -5.3768    0.0000 O   0  0  0  0  0  0  0  0  0  0  0  0
   -3.3835   -5.0685    0.0000 C   0  0  0  0  0  0  0  0  0  0  0  0
   -3.4081   -4.2434    0.0000 C   0  0  0  0  0  0  0  0  0  0  0  0
   -2.9955   -2.9760    0.0000 C   0  0  0  0  0  0  0  0  0  0  0  0
   -3.8209   -2.9750    0.0000 N   0  0  0  0  0  0  0  0  0  0  0  0
   -4.0776   -3.7594    0.0000 C   0  0  0  0  0  0  0  0  0  0  0  0
   -2.7450   -3.7611    0.0000 N   0  0  0  0  0  0  0  0  0  0  0  0
    1.6550   -6.1594    0.0000 C   0  0  0  0  0  0  0  0  0  0  0  0
    2.3824   -6.5485    0.0000 C   0  0  0  0  0  0  0  0  0  0  0  0
    3.0811   -6.1167    0.0000 C   0  0  0  0  0  0  0  0  0  0  0  0
    3.8065   -6.5070    0.0000 C   0  0  0  0  0  0  0  0  0  0  0  0
    4.5088   -6.0718    0.0000 C   0  0  0  0  0  0  0  0  0  0  0  0
    4.4846   -5.2457    0.0000 C   0  0  0  0  0  0  0  0  0  0  0  0
    3.7522   -4.8569    0.0000 C   0  0  0  0  0  0  0  0  0  0  0  0
    3.0528   -5.2943    0.0000 C   0  0  0  0  0  0  0  0  0  0  0  0
  4  6  2  0  0  0  0 
  1  2  1  0  0  0  0 
  5  7  1  0  0  0  0 
  3  4  1  0  0  0  0 
 13 14  1  0  0  0  0 
 14 11  2  0  0  0  0 
 11 15  1  0  0  0  0 
 15 12  2  0  0  0  0 
  7  8  1  0  0  0  0 
  8 16  1  0  0  0  0 
 16 17  1  0  0  0  0 
  7  9  2  0  0  0  0 
 17 18  1  0  0  0  0 
  4  5  1  0  0  0  0 
 18 19  2  0  0  0  0 
  1 10  1  0  0  0  0 
 19 20  1  0  0  0  0 
  2  3  1  0  0  0  0 
 20 21  2  0  0  0  0 
 10 11  1  0  0  0  0 
 21 22  1  0  0  0  0 
 12 13  1  0  0  0  0 
 22 23  2  0  0  0  0 
 23 18  1  0  0  0  0 
M  END