
          11280715182D 1   1.00000     0.00000     0

 20 21  0     0  0            999 V2000
    3.9792   -1.6125    0.0000 C   0  0  0  0  0  0           0  0  0
    3.9792   -2.2125    0.0000 O   0  0  0  0  0  0           0  0  0
   -0.1750   -0.4167    0.0000 O   0  0  0  0  0  0           0  0  0
    0.3417   -0.7167    0.0000 C   0  0  0  0  0  0           0  0  0
    4.5042   -1.3125    0.0000 O   0  0  0  0  0  0           0  0  0
   -0.6958   -0.7167    0.0000 C   0  0  0  0  0  0           0  0  0
    1.3792   -1.3167    0.0000 C   0  0  0  0  0  0           0  0  0
    0.8625   -0.4167    0.0000 C   0  0  0  0  0  0           0  0  0
    0.3417   -1.3167    0.0000 C   0  0  0  0  0  0           0  0  0
    0.8625   -1.6167    0.0000 C   0  0  0  0  0  0           0  0  0
    1.3792   -0.7167    0.0000 C   0  0  0  0  0  0           0  0  0
    3.4625   -1.3167    0.0000 C   0  0  0  0  0  0           0  0  0
    1.9042   -1.6167    0.0000 C   0  0  0  0  0  0           0  0  0
   -1.2125   -0.4167    0.0000 C   0  0  0  0  0  0           0  0  0
   -0.6958   -1.3167    0.0000 C   0  0  0  0  0  0           0  0  0
    2.9417   -1.6167    0.0000 C   0  0  0  0  0  0           0  0  0
    2.4250   -1.3167    0.0000 C   0  0  0  0  0  0           0  0  0
   -1.2125   -1.6167    0.0000 C   0  0  0  0  0  0           0  0  0
   -1.7333   -0.7167    0.0000 C   0  0  0  0  0  0           0  0  0
   -1.7333   -1.3167    0.0000 C   0  0  0  0  0  0           0  0  0
  2  1  2  0     0  0
  3  4  1  0     0  0
  4  8  1  0     0  0
  5  1  1  0     0  0
  6  3  1  0     0  0
  7 13  1  0     0  0
  8 11  2  0     0  0
  9 10  1  0     0  0
 10  7  2  0     0  0
 11  7  1  0     0  0
 12  1  1  0     0  0
 13 17  1  0     0  0
 14  6  1  0     0  0
 15  6  2  0     0  0
 16 12  1  0     0  0
 17 16  1  0     0  0
 18 15  1  0     0  0
 19 14  2  0     0  0
 20 18  2  0     0  0
  9  4  2  0     0  0
 19 20  1  0     0  0
M  END