
  SciTegic09171211542D

 43 48  0  0  0  0            999 V2000
   -6.0793  -17.4858    0.0000 C   0  0
   -6.0864  -18.3131    0.0000 C   0  0
   -5.3654  -18.7260    0.0000 C   0  0
   -4.6490  -18.3127    0.0000 C   0  0
   -4.6518  -17.4821    0.0000 C   0  0
   -5.3672  -17.0730    0.0000 C   0  0
   -2.5091  -17.0663    0.0000 N   0  0
   -1.7939  -17.4777    0.0000 C   0  0
   -1.0801  -17.0640    0.0000 C   0  0
   -1.7926  -18.3027    0.0000 O   0  0
   -0.3663  -17.4768    0.0000 C   0  0
   -0.3740  -15.8268    0.0000 C   0  0
   -1.0844  -16.2420    0.0000 C   0  0
   -0.3782  -15.0018    0.0000 C   0  0
    0.3462  -16.2380    0.0000 C   0  0
    0.3485  -17.0625    0.0000 C   0  0
    1.1325  -17.3150    0.0000 N   0  0
    1.6162  -16.6467    0.0000 C   0  0
    1.1297  -15.9811    0.0000 N   0  0
    2.4412  -16.6444    0.0000 C   0  0
    2.8517  -15.9288    0.0000 C   0  0
    3.6767  -15.9265    0.0000 C   0  0
    1.1344  -18.1400    0.0000 C   0  0
    1.8498  -18.5509    0.0000 C   0  0
    1.8469  -19.3752    0.0000 C   0  0
    2.5615  -19.7860    0.0000 C   0  0
    3.2760  -19.3718    0.0000 C   0  0
    3.2715  -18.5426    0.0000 C   0  0
    2.5563  -18.1355    0.0000 C   0  0
    3.9902  -19.7791    0.0000 C   0  0
    3.9919  -20.6053    0.0000 C   0  0
    4.7070  -21.0151    0.0000 C   0  0
    5.4210  -20.5999    0.0000 C   0  0
    5.4153  -19.7707    0.0000 C   0  0
    4.6996  -19.3646    0.0000 C   0  0
    4.6943  -18.5396    0.0000 C   0  0
    5.3549  -18.0504    0.0000 N   0  0
    5.0950  -17.2674    0.0000 N   0  0
    4.2699  -17.2726    0.0000 N   0  0
    4.0201  -18.0589    0.0000 N   0  0
   -3.2229  -17.4799    0.0000 C   0  0
   -3.9380  -17.0685    0.0000 C   0  0
   -3.9393  -16.2435    0.0000 C   0  0
 20 21  1  0
  9 11  2  0
 21 22  1  0
 11 16  1  0
 17 23  1  0
  5  6  2  0
 23 24  1  0
 15 12  1  0
 24 25  2  0
  6  1  1  0
 25 26  1  0
 12 13  2  0
 26 27  2  0
 13  9  1  0
 27 28  1  0
  1  2  2  0
 28 29  2  0
 29 24  1  0
 12 14  1  0
 15 16  2  0
 30 31  2  0
  3  4  2  0
 31 32  1  0
  7  8  1  0
 32 33  2  0
 33 34  1  0
  8  9  1  0
 34 35  2  0
 35 30  1  0
 27 30  1  0
  4  5  1  0
 35 36  1  0
 36 37  1  0
 16 17  1  0
 17 18  1  0
 18 19  2  0
 19 15  1  0
 37 38  1  0
 38 39  2  0
 39 40  1  0
 40 36  2  0
  8 10  2  0
  7 41  1  0
 18 20  1  0
 41 42  1  0
 42  5  1  0
  2  3  1  0
 42 43  1  0
M  END