
  SciTegic06051313522D

 34 37  0  0  0  0            999 V2000
   17.1972  -14.3860    0.0000 S   0  0
   17.9105  -14.8005    0.0000 N   0  0
   17.9088  -15.6246    0.0000 C   0  0
   18.6256  -14.3908    0.0000 C   0  0
   19.3390  -14.8052    0.0000 C   0  0
   20.0540  -14.3955    0.0000 C   0  0
   20.0578  -13.5678    0.0000 C   0  0
   19.3444  -13.1534    0.0000 C   0  0
   18.6272  -13.5667    0.0000 N   0  0
   19.3372  -15.6293    0.0000 C   0  0
   18.6287  -16.0508    0.0000 N   0  0
   19.3273  -18.1258    0.0000 C   0  0
   19.3378  -17.2981    0.0000 C   0  0
   18.6279  -16.8779    0.0000 C   0  0
   17.9074  -17.2853    0.0000 C   0  0
   17.8989  -18.1094    0.0000 C   0  0
   18.6089  -18.5296    0.0000 N   0  0
   20.1081  -18.3877    0.0000 N   0  0
   20.1230  -17.0495    0.0000 C   0  0
   20.6008  -17.7253    0.0000 C   0  0
   16.4816  -14.7966    0.0000 C   0  0
   16.6084  -13.7960    0.0000 O   0  0
   17.6042  -13.6667    0.0000 O   0  0
   17.1920  -16.8673    0.0000 C   0  0
   21.4231  -17.7347    0.0000 C   0  0
   21.8264  -18.4557    0.0000 C   0  0
   22.6505  -18.4659    0.0000 C   0  0
   23.0724  -17.7559    0.0000 C   0  0
   22.6641  -17.0340    0.0000 C   0  0
   21.8413  -17.0274    0.0000 C   0  0
   17.1963  -16.0424    0.0000 F   0  0
   16.4754  -17.2762    0.0000 F   0  0
   16.4751  -16.4542    0.0000 F   0  0
   23.8974  -17.7646    0.0000 F   0  0
  1  2  1  0
  2  3  1  0
  4  5  1  0
  5  6  2  0
  6  7  1  0
  7  8  2  0
  8  9  1  0
  4  9  2  0
 12 13  1  0
 13 14  2  0
 14 15  1  0
 15 16  2  0
 16 17  1  0
 12 17  2  0
 19 20  2  0
 18 20  1  0
 12 18  1  0
 13 19  1  0
 11 14  1  0
 10 11  1  0
  5 10  1  0
  2  4  1  0
  1 21  1  0
  1 22  2  0
  1 23  2  0
 15 24  1  0
 25 26  2  0
 26 27  1  0
 27 28  2  0
 28 29  1  0
 29 30  2  0
 30 25  1  0
 20 25  1  0
 24 31  1  0
 24 32  1  0
 24 33  1  0
 28 34  1  0
M  END