
  SciTegic07031513302D

 25 26  0  0  1  0            999 V2000
    4.5006   -2.3045    0.0000 S   0  3
    4.2423   -3.0879    0.0000 C   0  0  2  0  0  0
    4.9132   -3.5797    0.0000 O   0  0
    5.3257   -2.3045    0.0000 C   0  0
    5.5841   -3.0879    0.0000 C   0  0  1  0  0  0
    4.0173   -1.6419    0.0000 O   0  5
    7.0135   -3.0712    0.0000 N   0  3
    3.6547   -3.6713    0.0000 C   0  0
    3.5297   -2.6754    0.0000 C   0  0
    6.2926   -2.6754    0.0000 C   0  0
    6.8885   -1.1919    0.0000 I   0  5
    7.7219   -3.4797    0.0000 C   0  0
    7.7219   -2.6379    0.0000 C   0  0
    7.0343   -3.8922    0.0000 C   0  0
    3.8630   -4.4673    0.0000 C   0  0
    2.8629   -3.4422    0.0000 C   0  0
    2.8046   -3.0879    0.0000 C   0  0
    3.5297   -1.8420    0.0000 C   0  0
    2.2795   -4.0173    0.0000 C   0  0
    3.2755   -5.0340    0.0000 C   0  0
    2.8129   -1.4169    0.0000 C   0  0
    2.0836   -2.6671    0.0000 C   0  0
    2.4795   -4.8090    0.0000 C   0  0
    2.0878   -1.8295    0.0000 C   0  0
    6.1676   -3.6713    0.0000 H   0  0
  2  1  1  0
  3  2  1  0
  1  4  1  6
  5  4  1  0
  6  1  1  0
  7 10  1  0
  2  8  1  6
  2  9  1  1
  5 10  1  1
 12  7  1  0
 13  7  1  0
 14  7  1  0
 15  8  1  0
 16  8  2  0
 17  9  1  0
 18  9  1  0
 19 16  1  0
 20 15  2  0
 21 18  1  0
 22 17  1  0
 23 20  1  0
 24 22  1  0
  5 25  1  6
  5  3  1  0
 21 24  1  0
 19 23  2  0
M  CHG  4   1   1   6  -1   7   1  11  -1
M  END