
  CDK    9/16/09,10:6

 17 18  0  0  0  0  0  0  0  0999 V2000
    2.6433    0.2787    0.0000 C   0  0  0  0  0  0  0  0  0  0  0  0
    3.3602   -0.1308    0.0000 C   0  0  0  0  0  0  0  0  0  0  0  0
    4.0732    0.2816    0.0000 C   0  0  0  0  0  0  0  0  0  0  0  0
    4.0706    1.1076    0.0000 C   0  0  0  0  0  0  0  0  0  0  0  0
    3.3490    1.5193    0.0000 C   0  0  0  0  0  0  0  0  0  0  0  0
    2.6389    1.1003    0.0000 C   0  0  0  0  0  0  0  0  0  0  0  0
    3.3430    2.3443    0.0000 C   0  0  0  0  0  0  0  0  0  0  0  0
    4.0550    2.7599    0.0000 O   0  0  0  0  0  0  0  0  0  0  0  0
    2.6249    2.7496    0.0000 O   0  0  0  0  0  0  0  0  0  0  0  0
    4.7835    1.5258    0.0000 O   0  0  0  0  0  0  0  0  0  0  0  0
    4.7872   -0.1244    0.0000 C   0  0  0  0  0  0  0  0  0  0  0  0
    4.7885   -0.9506    0.0000 C   0  0  0  0  0  0  0  0  0  0  0  0
    5.5041   -1.3627    0.0000 C   0  0  0  0  0  0  0  0  0  0  0  0
    6.2187   -0.9457    0.0000 C   0  0  0  0  0  0  0  0  0  0  0  0
    6.2135   -0.1164    0.0000 C   0  0  0  0  0  0  0  0  0  0  0  0
    5.4972    0.2879    0.0000 C   0  0  0  0  0  0  0  0  0  0  0  0
    1.9339   -0.1344    0.0000 Br  0  0  0  0  0  0  0  0  0  0  0  0
  7  9  2  0  0  0  0 
  4  5  1  0  0  0  0 
  2  3  1  0  0  0  0 
  4 10  1  0  0  0  0 
  5  6  2  0  0  0  0 
  6  1  1  0  0  0  0 
 11 12  2  0  0  0  0 
  1  2  2  0  0  0  0 
 12 13  1  0  0  0  0 
  5  7  1  0  0  0  0 
 13 14  2  0  0  0  0 
  3  4  2  0  0  0  0 
 14 15  1  0  0  0  0 
  7  8  1  0  0  0  0 
 15 16  2  0  0  0  0 
 16 11  1  0  0  0  0 
  3 11  1  0  0  0  0 
  1 17  1  0  0  0  0 
M  END