
          05080814042D 1   1.00000     0.00000     0

 40 44  0     1  0            999 V2000
    7.4726   -5.3280    0.0000 C   0  0  0  0  0  0           0  0  0
    6.7619   -5.7429    0.0000 C   0  0  0  0  0  0           0  0  0
    6.7689   -6.5692    0.0000 C   0  0  0  0  0  0           0  0  0
    7.4827   -6.9727    0.0000 C   0  0  0  0  0  0           0  0  0
    8.1859   -5.7352    0.0000 C   0  0  0  0  0  0           0  0  0
    8.1920   -6.5629    0.0000 C   0  0  0  0  0  0           0  0  0
    8.9078   -6.9692    0.0000 C   0  0  0  0  0  0           0  0  0
    8.8957   -5.3139    0.0000 C   0  0  0  0  0  0           0  0  0
    9.6162   -5.7247    0.0000 C   0  0  2  0  0  0           0  0  0
    9.6207   -6.5543    0.0000 C   0  0  2  0  0  0           0  0  0
   10.3375   -6.9630    0.0000 N   0  0  3  0  0  0           0  0  0
   11.0543   -6.5465    0.0000 C   0  0  0  0  0  0           0  0  0
   11.0497   -5.7169    0.0000 C   0  0  1  0  0  0           0  0  0
   10.3284   -5.3037    0.0000 C   0  0  0  0  0  0           0  0  0
    9.6083   -4.8958    0.0000 H   0  0  0  0  0  0           0  0  0
    9.6125   -7.3792    0.0000 H   0  0  0  0  0  0           0  0  0
   11.7624   -5.3012    0.0000 C   0  0  0  0  0  0           0  0  0
   12.4787   -5.7105    0.0000 N   0  0  3  0  0  0           0  0  0
   11.7587   -4.4762    0.0000 O   0  0  0  0  0  0           0  0  0
   12.4764   -6.5387    0.0000 C   0  0  0  0  0  0           0  0  0
   13.1886   -6.9479    0.0000 C   0  0  0  0  0  0           0  0  0
   13.9036   -6.5357    0.0000 N   0  0  3  0  0  0           0  0  0
   13.9019   -5.7097    0.0000 C   0  0  0  0  0  0           0  0  0
   13.1851   -5.2960    0.0000 C   0  0  0  0  0  0           0  0  0
    7.4687   -4.5030    0.0000 O   0  0  0  0  0  0           0  0  0
    6.7522   -4.0939    0.0000 C   0  0  0  0  0  0           0  0  0
   10.3408   -7.7879    0.0000 C   0  0  0  0  0  0           0  0  0
   14.6184   -6.9477    0.0000 C   0  0  0  0  0  0           0  0  0
   14.6145   -7.7719    0.0000 C   0  0  0  0  0  0           0  0  0
   15.3284   -8.1838    0.0000 C   0  0  0  0  0  0           0  0  0
   16.0435   -7.7708    0.0000 C   0  0  0  0  0  0           0  0  0
   16.0403   -6.9415    0.0000 C   0  0  0  0  0  0           0  0  0
   15.3258   -6.5333    0.0000 C   0  0  0  0  0  0           0  0  0
   15.3209   -5.7080    0.0000 N   0  3  0  0  0  0           0  0  0
   14.6042   -5.2994    0.0000 O   0  0  0  0  0  0           0  0  0
   16.0331   -5.2917    0.0000 O   0  5  0  0  0  0           0  0  0
   16.7588   -8.1819    0.0000 C   0  0  3  0  0  0           0  0  0
   17.4708   -8.5917    0.0000 F   0  0  0  0  0  0           0  0  0
   17.1701   -7.4667    0.0000 F   0  0  0  0  0  0           0  0  0
   16.3506   -8.8988    0.0000 F   0  0  0  0  0  0           0  0  0
 17 19  2  0     0  0
 18 20  1  0     0  0
  9 10  1  0     0  0
  3  4  2  0     0  0
  4  6  1  0     0  0
  5  6  2  0     0  0
  1  2  2  0     0  0
 18 24  1  0     0  0
 20 21  1  0     0  0
 21 22  1  0     0  0
 22 23  1  0     0  0
 23 24  1  0     0  0
  5  1  1  0     0  0
  1 25  1  0     0  0
  2  3  1  0     0  0
 25 26  1  0     0  0
  9 14  1  0     0  0
 11 27  1  0     0  0
 10 11  1  0     0  0
 22 28  1  0     0  0
 11 12  1  0     0  0
 28 29  2  0     0  0
 12 13  1  0     0  0
 29 30  1  0     0  0
 13 14  1  0     0  0
 30 31  2  0     0  0
 31 32  1  0     0  0
  9 15  1  6     0  0
 32 33  2  0     0  0
 33 28  1  0     0  0
  5  8  1  0     0  0
 10 16  1  1     0  0
  6  7  1  0     0  0
 34 35  2  0     0  0
 34 36  1  0     0  0
 33 34  1  0     0  0
 13 17  1  1     0  0
 31 37  1  0     0  0
  7 10  1  0     0  0
 37 38  1  0     0  0
 17 18  1  0     0  0
 37 39  1  0     0  0
  9  8  1  0     0  0
 37 40  1  0     0  0
M  CHG  2  34   1  36  -1
M  END