
  SciTegic09261414532D

 47 54  0  0  0  0            999 V2000
    8.0438  -20.6597    0.0000 N   0  0
    7.2581  -20.8670    0.0000 C   0  0
    7.2135  -21.6831    0.0000 N   0  0
    8.4910  -21.3424    0.0000 C   0  0
    7.9758  -21.9722    0.0000 C   0  0
    8.2640  -22.7312    0.0000 C   0  0
    9.0669  -22.8615    0.0000 C   0  0
    9.5810  -22.2268    0.0000 C   0  0
    9.2901  -21.4703    0.0000 C   0  0
    6.4980  -20.5721    0.0000 C   0  0
    6.3764  -19.7629    0.0000 C   0  0
    5.6161  -19.4652    0.0000 C   0  0
    4.9769  -19.9757    0.0000 C   0  0
    5.1029  -20.7874    0.0000 C   0  0
    5.8632  -21.0813    0.0000 C   0  0
    0.7786  -18.0855    0.0000 C   0  0
    0.7775  -18.9050    0.0000 C   0  0
    1.4855  -19.3140    0.0000 C   0  0
    1.4837  -17.6766    0.0000 C   0  0
    2.1924  -18.0819    0.0000 C   0  0
    2.1926  -18.9051    0.0000 C   0  0
    2.9756  -19.1592    0.0000 N   0  0
    3.4593  -18.4931    0.0000 C   0  0
    2.9752  -17.8273    0.0000 N   0  0
    3.2283  -19.9364    0.0000 C   0  0
    4.2733  -18.4914    0.0000 N   0  0
    4.6815  -19.2006    0.0000 C   0  0
    5.4979  -19.2006    0.0000 C   0  0
    5.9071  -18.4923    0.0000 C   0  0
    5.4939  -17.7823    0.0000 C   0  0
    4.6788  -17.7858    0.0000 C   0  0
    6.7243  -18.4909    0.0000 C   0  0
    7.1341  -19.1979    0.0000 O   0  0
    7.9513  -19.1965    0.0000 C   0  0
    2.6817  -20.5438    0.0000 C   0  0
    1.8841  -20.3727    0.0000 C   0  0
    1.3377  -20.9794    0.0000 C   0  0
    1.5903  -21.7575    0.0000 C   0  0
    2.3944  -21.9255    0.0000 C   0  0
    2.9373  -21.3175    0.0000 C   0  0
    8.3610  -19.9036    0.0000 C   0  0
    7.1317  -17.7825    0.0000 O   0  0
    9.1754  -19.8530    0.0000 C   0  0
    9.6954  -20.4808    0.0000 C   0  0
   10.4543  -20.1811    0.0000 C   0  0
   10.4037  -19.3666    0.0000 N   0  0
    9.6135  -19.1633    0.0000 C   0  0
  1  2  1  0
  2  3  2  0
  3  5  1  0
  4  1  1  0
  4  5  2  0
  5  6  1  0
  6  7  2  0
  7  8  1  0
  8  9  2  0
  9  4  1  0
 10 11  2  0
 11 12  1  0
 12 13  2  0
 13 14  1  0
 14 15  2  0
 15 10  1  0
  2 10  1  0
 16 17  2  0
 17 18  1  0
 18 21  2  0
 20 19  2  0
 19 16  1  0
 20 21  1  0
 21 22  1  0
 22 23  1  0
 23 24  2  0
 24 20  1  0
 22 25  1  0
 26 27  1  0
 27 28  1  0
 28 29  1  0
 29 30  1  0
 30 31  1  0
 31 26  1  0
 23 26  1  0
 29 32  1  0
 32 33  1  0
 33 34  1  0
 25 35  1  0
 35 36  2  0
 36 37  1  0
 37 38  2  0
 38 39  1  0
 39 40  2  0
 40 35  1  0
 34 41  1  0
 41  1  1  0
 32 42  2  0
 41 43  1  0
 43 44  1  0
 44 45  1  0
 45 46  1  0
 46 47  1  0
 47 43  1  0
M  END