
  CDK    8/10/10,12:22

 31 34  0  0  0  0  0  0  0  0999 V2000
   -3.0884   -0.3769    0.0000 C   0  0  0  0  0  0  0  0  0  0  0  0
   -3.5829    0.2794    0.0000 C   0  0  0  0  0  0  0  0  0  0  0  0
   -4.3634    0.0091    0.0000 N   0  0  0  0  0  0  0  0  0  0  0  0
   -4.3460   -0.8169    0.0000 O   0  0  0  0  0  0  0  0  0  0  0  0
   -3.5548   -1.0542    0.0000 N   0  0  0  0  0  0  0  0  0  0  0  0
   -3.3424    1.0686    0.0000 N   0  0  0  0  0  0  0  0  0  0  0  0
   -2.2649   -0.3610    0.0000 C   0  0  0  0  0  0  0  0  0  0  0  0
   -0.2878   -1.1860    0.0000 C   0  0  0  0  0  0  0  0  0  0  0  0
    0.4287   -0.7727    0.0000 C   0  0  0  0  0  0  0  0  0  0  0  0
    0.4258    0.0578    0.0000 N   0  0  0  0  0  0  0  0  0  0  0  0
   -0.2896    0.4670    0.0000 C   0  0  0  0  0  0  0  0  0  0  0  0
   -1.7844   -1.0227    0.0000 N   0  0  0  0  0  0  0  0  0  0  0  0
   -1.0026   -0.7732    0.0000 C   0  0  0  0  0  0  0  0  0  0  0  0
   -0.9999    0.0490    0.0000 C   0  0  0  0  0  0  0  0  0  0  0  0
   -1.7818    0.3043    0.0000 N   0  0  0  0  0  0  0  0  0  0  0  0
   -1.8077   -1.8473    0.0000 C   0  0  0  0  0  0  0  0  0  0  0  0
   -2.5336   -2.2395    0.0000 C   0  0  0  0  0  0  0  0  0  0  0  0
   -0.2947    1.2920    0.0000 C   0  0  0  0  0  0  0  0  0  0  0  0
   -0.3000    2.1208    0.0000 C   0  0  0  0  0  0  0  0  0  0  0  0
   -0.3042    2.9458    0.0000 C   0  0  0  0  0  0  0  0  0  0  0  0
    0.4082    3.3619    0.0000 O   0  0  0  0  0  0  0  0  0  0  0  0
   -1.0207    3.3547    0.0000 C   0  0  0  0  0  0  0  0  0  0  0  0
   -0.3083    3.7708    0.0000 C   0  0  0  0  0  0  0  0  0  0  0  0
   -0.2880   -2.0110    0.0000 O   0  0  0  0  0  0  0  0  0  0  0  0
    0.4264   -2.4237    0.0000 C   0  0  0  0  0  0  0  0  0  0  0  0
    0.4262   -3.2487    0.0000 C   0  0  0  0  0  0  0  0  0  0  0  0
   -0.2881   -3.6571    0.0000 C   0  0  0  0  0  0  0  0  0  0  0  0
   -0.2903   -4.4785    0.0000 N   0  0  0  0  0  0  0  0  0  0  0  0
    0.4222   -4.8950    0.0000 C   0  0  0  0  0  0  0  0  0  0  0  0
    1.1386   -4.4839    0.0000 C   0  0  0  0  0  0  0  0  0  0  0  0
    1.1425   -3.6563    0.0000 C   0  0  0  0  0  0  0  0  0  0  0  0
 15  7  2  0  0  0  0 
  7 12  1  0  0  0  0 
  1  2  1  0  0  0  0 
 12 16  1  0  0  0  0 
 13  8  2  0  0  0  0 
 16 17  1  0  0  0  0 
  3  4  1  0  0  0  0 
 11 18  1  0  0  0  0 
  8  9  1  0  0  0  0 
 18 19  3  0  0  0  0 
  4  5  1  0  0  0  0 
 19 20  1  0  0  0  0 
  9 10  2  0  0  0  0 
 20 21  1  0  0  0  0 
  5  1  2  0  0  0  0 
 20 22  1  0  0  0  0 
 10 11  1  0  0  0  0 
 20 23  1  0  0  0  0 
 11 14  2  0  0  0  0 
  8 24  1  0  0  0  0 
 13 14  1  0  0  0  0 
 24 25  1  0  0  0  0 
 26 25  1  1  0  0  0 
 26 27  1  0  0  0  0 
  2  6  1  0  0  0  0 
  2  3  2  0  0  0  0 
  1  7  1  0  0  0  0 
 12 13  1  0  0  0  0 
 14 15  1  0  0  0  0 
 26 31  1  0  0  0  0 
 27 28  1  0  0  0  0 
 28 29  1  0  0  0  0 
 29 30  1  0  0  0  0 
 30 31  1  0  0  0  0 
M  END