
  CDK    9/16/09,9:58

 21 24  0  0  0  0  0  0  0  0999 V2000
    3.2755   -8.5754    0.0000 C   0  0  0  0  0  0  0  0  0  0  0  0
    3.2743   -9.4030    0.0000 C   0  0  0  0  0  0  0  0  0  0  0  0
    3.9872   -9.8158    0.0000 C   0  0  0  0  0  0  0  0  0  0  0  0
    3.9852   -8.1625    0.0000 C   0  0  0  0  0  0  0  0  0  0  0  0
    4.7034   -8.5714    0.0000 C   0  0  0  0  0  0  0  0  0  0  0  0
    4.7039   -9.3984    0.0000 C   0  0  0  0  0  0  0  0  0  0  0  0
    5.4906   -9.6535    0.0000 N   0  0  0  0  0  0  0  0  0  0  0  0
    5.9764   -8.9840    0.0000 C   0  0  0  0  0  0  0  0  0  0  0  0
    5.4898   -8.3153    0.0000 N   0  0  0  0  0  0  0  0  0  0  0  0
    6.8014   -8.9835    0.0000 N   0  0  0  0  0  0  0  0  0  0  0  0
    7.2143   -9.6976    0.0000 C   0  0  0  0  0  0  0  0  0  0  0  0
    6.8020  -10.4087    0.0000 C   0  0  0  0  0  0  0  0  0  0  0  0
    7.2114  -11.1209    0.0000 C   0  0  0  0  0  0  0  0  0  0  0  0
    8.0368  -11.1245    0.0000 C   0  0  0  0  0  0  0  0  0  0  0  0
    8.0398   -9.6917    0.0000 C   0  0  0  0  0  0  0  0  0  0  0  0
    8.4479  -10.4084    0.0000 C   0  0  0  0  0  0  0  0  0  0  0  0
    9.2707  -10.4124    0.0000 C   0  0  0  0  0  0  0  0  0  0  0  0
    9.6865   -9.7003    0.0000 C   0  0  0  0  0  0  0  0  0  0  0  0
    9.2734   -8.9829    0.0000 C   0  0  0  0  0  0  0  0  0  0  0  0
    8.4520   -8.9824    0.0000 C   0  0  0  0  0  0  0  0  0  0  0  0
    9.6866   -8.2688    0.0000 Br  0  0  0  0  0  0  0  0  0  0  0  0
  8 10  1  0  0  0  0 
  5  6  1  0  0  0  0 
 10 11  1  0  0  0  0 
 11 12  1  0  0  0  0 
  2  3  1  0  0  0  0 
  3  6  2  0  0  0  0 
 11 15  1  0  0  0  0 
 12 13  1  0  0  0  0 
 13 14  1  0  0  0  0 
 14 16  1  0  0  0  0 
  1  2  2  0  0  0  0 
  5  4  2  0  0  0  0 
 15 16  2  0  0  0  0 
  6  7  1  0  0  0  0 
 16 17  1  0  0  0  0 
  7  8  1  0  0  0  0 
 17 18  2  0  0  0  0 
  8  9  2  0  0  0  0 
 18 19  1  0  0  0  0 
  9  5  1  0  0  0  0 
 19 20  2  0  0  0  0 
 20 15  1  0  0  0  0 
  4  1  1  0  0  0  0 
 19 21  1  0  0  0  0 
M  END