
  CDK    12/20/10,14:45

 39 42  0  0  0  0  0  0  0  0999 V2000
    1.6625   -3.4792    0.0000 C   0  0  0  0  0  0  0  0  0  0  0  0
    1.6625   -2.6542    0.0000 C   0  0  0  0  0  0  0  0  0  0  0  0
    3.0875   -3.4792    0.0000 C   0  0  0  0  0  0  0  0  0  0  0  0
    2.3750   -3.8833    0.0000 C   0  0  0  0  0  0  0  0  0  0  0  0
    7.3708   -2.6667    0.0000 C   0  0  0  0  0  0  0  0  0  0  0  0
    2.3750   -2.2333    0.0000 C   0  0  0  0  0  0  0  0  0  0  0  0
    3.0875   -2.6542    0.0000 C   0  0  0  0  0  0  0  0  0  0  0  0
    3.8000   -4.7167    0.0000 P   0  0  0  0  0  0  0  0  0  0  0  0
    0.9417   -1.4167    0.0000 P   0  0  0  0  0  0  0  0  0  0  0  0
    0.2333   -3.4792    0.0000 P   0  0  0  0  0  0  0  0  0  0  0  0
    0.9458   -3.8875    0.0000 O   0  0  0  0  0  0  0  0  0  0  0  0
    0.9458   -2.2417    0.0000 O   0  0  0  0  0  0  0  0  0  0  0  0
    3.8000   -3.8875    0.0000 O   0  0  0  0  0  0  0  0  0  0  0  0
    6.6583   -2.2500    0.0000 C   0  0  0  0  0  0  0  0  0  0  0  0
    7.8292   -3.2792    0.0000 C   0  0  0  0  0  0  0  0  0  0  0  0
    7.8833   -2.0333    0.0000 C   0  0  0  0  0  0  0  0  0  0  0  0
    7.3583   -3.5333    0.0000 C   0  0  0  0  0  0  0  0  0  0  0  0
    8.6542   -2.2667    0.0000 C   0  0  0  0  0  0  0  0  0  0  0  0
    8.1250   -3.7792    0.0000 C   0  0  0  0  0  0  0  0  0  0  0  0
    8.5417   -3.5292    0.0000 C   0  0  0  0  0  0  0  0  0  0  0  0
    1.6542   -1.0042    0.0000 O   0  0  0  0  0  0  0  0  0  0  0  0
    3.0833   -5.1292    0.0000 O   0  0  0  0  0  0  0  0  0  0  0  0
   -0.4792   -3.8917    0.0000 O   0  0  0  0  0  0  0  0  0  0  0  0
    6.6625   -1.4250    0.0000 O   0  0  0  0  0  0  0  0  0  0  0  0
    8.6667   -3.1292    0.0000 C   0  0  0  0  0  0  0  0  0  0  0  0
    8.6000   -4.4583    0.0000 C   0  0  0  0  0  0  0  0  0  0  0  0
    9.0500   -2.9208    0.0000 C   0  0  0  0  0  0  0  0  0  0  0  0
    0.5333   -0.7000    0.0000 O   0  0  0  0  0  0  0  0  0  0  0  0
   -0.1708   -2.7625    0.0000 O   0  0  0  0  0  0  0  0  0  0  0  0
    4.1917   -5.4417    0.0000 O   0  0  0  0  0  0  0  0  0  0  0  0
    0.6500   -2.7667    0.0000 O   0  0  0  0  0  0  0  0  0  0  0  0
    0.1167   -1.4167    0.0000 O   0  0  0  0  0  0  0  0  0  0  0  0
    4.6250   -4.7375    0.0000 O   0  0  0  0  0  0  0  0  0  0  0  0
    2.3750   -4.7083    0.0000 O   0  0  0  0  0  0  0  0  0  0  0  0
    5.9417   -2.6625    0.0000 N   0  0  0  0  0  0  0  0  0  0  0  0
    2.3750   -1.4083    0.0000 O   0  0  0  0  0  0  0  0  0  0  0  0
    3.8000   -2.2417    0.0000 O   0  0  0  0  0  0  0  0  0  0  0  0
    5.2292   -2.2458    0.0000 C   0  0  0  0  0  0  0  0  0  0  0  0
    4.5125   -2.6583    0.0000 C   0  0  0  0  0  0  0  0  0  0  0  0
  2  1  1  0  0  0  0 
  3  4  1  0  0  0  0 
  4  1  1  0  0  0  0 
  5 14  1  0  0  0  0 
  6  2  1  0  0  0  0 
  7  3  1  0  0  0  0 
  8 13  1  0  0  0  0 
  9 12  1  0  0  0  0 
 10 11  1  0  0  0  0 
  1 11  1  1  0  0  0 
  2 12  1  6  0  0  0 
  3 13  1  1  0  0  0 
 14 35  1  0  0  0  0 
 15  5  1  0  0  0  0 
 16  5  1  0  0  0  0 
 17  5  1  0  0  0  0 
 18 16  1  0  0  0  0 
 19 17  1  0  0  0  0 
 20 15  1  0  0  0  0 
 21  9  2  0  0  0  0 
 22  8  2  0  0  0  0 
 23 10  2  0  0  0  0 
 24 14  2  0  0  0  0 
 25 18  1  0  0  0  0 
 26 19  1  0  0  0  0 
 27 18  1  0  0  0  0 
 28  9  1  0  0  0  0 
 29 10  1  0  0  0  0 
 30  8  1  0  0  0  0 
 31 10  1  0  0  0  0 
 32  9  1  0  0  0  0 
 33  8  1  0  0  0  0 
  4 34  1  6  0  0  0 
 35 38  1  0  0  0  0 
  6 36  1  1  0  0  0 
  7 37  1  1  0  0  0 
 38 39  1  0  0  0  0 
 39 37  1  0  0  0  0 
  6  7  1  0  0  0  0 
 27 20  1  0  0  0  0 
 25 19  1  0  0  0  0 
 20 26  1  0  0  0  0 
M  END