
          11280715222D 1   1.00000     0.00000     0

 19 20  0     0  0            999 V2000
   -0.7833   -0.8375    0.0000 S   0  0  0  0  0  0           0  0  0
    2.8417   -2.9542    0.0000 N   0  3  0  0  0  0           0  0  0
   -0.0333   -0.4917    0.0000 C   0  0  0  0  0  0           0  0  0
   -1.3333   -0.2167    0.0000 C   0  0  0  0  0  0           0  0  0
   -0.1208    0.3250    0.0000 N   0  0  0  0  0  0           0  0  0
   -0.9250    0.4958    0.0000 N   0  0  0  0  0  0           0  0  0
    2.8375   -2.1250    0.0000 C   0  0  0  0  0  0           0  0  0
    2.1167   -0.8917    0.0000 C   0  0  0  0  0  0           0  0  0
    2.1250   -1.7167    0.0000 C   0  0  0  0  0  0           0  0  0
    2.1292   -3.3667    0.0000 O   0  5  0  0  0  0           0  0  0
    0.6875   -0.9042    0.0000 S   0  0  0  0  0  0           0  0  0
    3.5625   -3.3542    0.0000 O   0  0  0  0  0  0           0  0  0
    2.8292   -0.4792    0.0000 C   0  0  0  0  0  0           0  0  0
    1.4000   -0.4875    0.0000 C   0  0  0  0  0  0           0  0  0
    3.5417   -1.7125    0.0000 C   0  0  0  0  0  0           0  0  0
    3.5417   -0.8875    0.0000 C   0  0  0  0  0  0           0  0  0
   -2.1583   -0.3167    0.0000 N   0  0  0  0  0  0           0  0  0
    2.8250    0.3458    0.0000 O   0  0  0  0  0  0           0  0  0
    3.5375    0.7625    0.0000 C   0  0  0  0  0  0           0  0  0
  2  7  1  0     0  0
  3  1  1  0     0  0
  4  1  1  0     0  0
  5  3  2  0     0  0
  6  4  2  0     0  0
  7  9  2  0     0  0
  8 14  1  0     0  0
  9  8  1  0     0  0
 10  2  1  0     0  0
 11  3  1  0     0  0
 12  2  2  0     0  0
 13  8  2  0     0  0
 14 11  1  0     0  0
 15 16  2  0     0  0
 16 13  1  0     0  0
 17  4  1  0     0  0
 18 13  1  0     0  0
 19 18  1  0     0  0
  6  5  1  0     0  0
 15  7  1  0     0  0
M  CHG  2   2   1  10  -1
M  END