
  Mrv0541 04051115152D          

 19 21  0  0  0  0            999 V2000
    1.5297    0.7763    0.0000 N   0  0  0  0  0  0  0  0  0  0  0  0
    2.2442    0.3637    0.0000 C   0  0  0  0  0  0  0  0  0  0  0  0
    0.8153    0.3638    0.0000 C   0  0  0  0  0  0  0  0  0  0  0  0
    2.9587    0.7762    0.0000 O   0  0  0  0  0  0  0  0  0  0  0  0
    2.2442   -0.4613    0.0000 N   0  0  0  0  0  0  0  0  0  0  0  0
    1.5297   -0.8738    0.0000 C   0  0  0  0  0  0  0  0  0  0  0  0
    1.5297   -1.6988    0.0000 O   0  0  0  0  0  0  0  0  0  0  0  0
    0.8153   -0.4612    0.0000 C   0  0  0  0  0  0  0  0  0  0  0  0
    0.1008   -0.8738    0.0000 N   0  0  0  0  0  0  0  0  0  0  0  0
   -0.6137   -0.4613    0.0000 C   0  0  0  0  0  0  0  0  0  0  0  0
   -1.3282   -0.8738    0.0000 C   0  0  0  0  0  0  0  0  0  0  0  0
   -0.6137    0.3637    0.0000 C   0  0  0  0  0  0  0  0  0  0  0  0
   -2.0426   -0.4612    0.0000 C   0  0  0  0  0  0  0  0  0  0  0  0
   -2.7571   -0.8737    0.0000 C   0  0  0  0  0  0  0  0  0  0  0  0
   -2.0426    0.3638    0.0000 C   0  0  0  0  0  0  0  0  0  0  0  0
   -2.7571    0.7763    0.0000 C   0  0  0  0  0  0  0  0  0  0  0  0
   -1.3282    0.7762    0.0000 C   0  0  0  0  0  0  0  0  0  0  0  0
    0.1008    0.7762    0.0000 N   0  0  0  0  0  0  0  0  0  0  0  0
    0.1008    1.6012    0.0000 C   0  0  0  0  0  0  0  0  0  0  0  0
  2  1  1  0  0  0  0
  3  1  2  0  0  0  0
  2  4  2  0  0  0  0
  2  5  1  0  0  0  0
  3  8  1  0  0  0  0
  3 18  1  0  0  0  0
  6  5  1  0  0  0  0
  6  7  2  0  0  0  0
  6  8  1  0  0  0  0
  8  9  2  0  0  0  0
 10  9  1  0  0  0  0
 10 11  2  0  0  0  0
 10 12  1  0  0  0  0
 11 13  1  0  0  0  0
 17 12  2  0  0  0  0
 12 18  1  0  0  0  0
 13 14  1  0  0  0  0
 13 15  2  0  0  0  0
 15 16  1  0  0  0  0
 15 17  1  0  0  0  0
 19 18  1  0  0  0  0
M  END