
          11280715472D 1   1.00000     0.00000     0

 22 24  0     0  0            999 V2000
    1.6167    2.3083    0.0000 N   0  0  3  0  0  0           0  0  0
   -1.2333   -2.6375    0.0000 N   0  0  3  0  0  0           0  0  0
    0.9042    2.7208    0.0000 C   0  0  0  0  0  0           0  0  0
    1.6167    1.4875    0.0000 C   0  0  0  0  0  0           0  0  0
    0.1875    2.3083    0.0000 C   0  0  0  0  0  0           0  0  0
    0.9042    1.0708    0.0000 C   0  0  0  0  0  0           0  0  0
   -0.5208   -2.2292    0.0000 C   0  0  0  0  0  0           0  0  0
   -0.5208    1.0833    0.0000 O   0  0  0  0  0  0           0  0  0
    2.3292    2.7208    0.0000 C   0  0  3  0  0  0           0  0  0
    0.1917    1.4875    0.0000 C   0  0  3  0  0  0           0  0  0
   -0.5208    0.2500    0.0000 C   0  0  0  0  0  0           0  0  0
   -0.5208   -1.4042    0.0000 C   0  0  0  0  0  0           0  0  0
   -1.2333   -0.1542    0.0000 C   0  0  0  0  0  0           0  0  0
    0.1917   -0.1542    0.0000 C   0  0  0  0  0  0           0  0  0
    0.1917   -0.9917    0.0000 C   0  0  0  0  0  0           0  0  0
   -1.2333   -0.9917    0.0000 C   0  0  0  0  0  0           0  0  0
   -1.2333   -3.4667    0.0000 C   0  0  0  0  0  0           0  0  0
   -2.0208   -2.3875    0.0000 C   0  0  0  0  0  0           0  0  0
    2.3292    3.5458    0.0000 C   0  0  0  0  0  0           0  0  0
    3.0500    2.3000    0.0000 C   0  0  0  0  0  0           0  0  0
   -2.0208   -3.7167    0.0000 C   0  0  0  0  0  0           0  0  0
   -2.5083   -3.0542    0.0000 C   0  0  0  0  0  0           0  0  0
  2  7  1  0     0  0
  3  1  1  0     0  0
  4  1  1  0     0  0
  5  3  1  0     0  0
  6  4  1  0     0  0
  7 12  1  0     0  0
  8 10  1  0     0  0
  9  1  1  0     0  0
 10  6  1  0     0  0
 11  8  1  0     0  0
 12 15  2  0     0  0
 13 11  1  0     0  0
 14 11  2  0     0  0
 15 14  1  0     0  0
 16 13  2  0     0  0
 17  2  1  0     0  0
 18  2  1  0     0  0
 19  9  1  0     0  0
 20  9  1  0     0  0
 21 17  1  0     0  0
 22 18  1  0     0  0
  5 10  1  0     0  0
 12 16  1  0     0  0
 22 21  1  0     0  0
M  END