
  SciTegic12171313052D

 32 37  0  0  0  0            999 V2000
   14.2239  -16.0160    0.0000 C   0  0
   14.2239  -16.8431    0.0000 N   0  0
   14.9377  -17.2525    0.0000 C   0  0
   15.6516  -16.8431    0.0000 C   0  0
   15.6516  -16.0160    0.0000 C   0  0
   14.9377  -15.5982    0.0000 C   0  0
   15.6525  -15.1888    0.0000 C   0  0
   16.3664  -16.4254    0.0000 C   0  0
   17.0802  -16.0160    0.0000 N   0  0
   17.0802  -15.1888    0.0000 C   0  0
   16.3664  -14.7711    0.0000 C   0  0
   16.3666  -17.2525    0.0000 O   0  0
   13.5082  -17.2577    0.0000 C   0  0
   12.7920  -16.8439    0.0000 N   0  0
   12.7994  -18.4981    0.0000 N   0  0
   13.5117  -18.0818    0.0000 C   0  0
   12.0775  -18.0858    0.0000 C   0  0
   12.0793  -17.2608    0.0000 C   0  0
   11.3669  -16.8485    0.0000 C   0  0
   10.6522  -17.2601    0.0000 C   0  0
   10.6543  -18.0882    0.0000 C   0  0
   11.3673  -18.4968    0.0000 C   0  0
   17.7959  -16.4305    0.0000 C   0  0
   18.5128  -16.0180    0.0000 C   0  0
   19.9449  -15.1937    0.0000 C   0  0
   19.9433  -16.0217    0.0000 C   0  0
   19.2316  -16.4358    0.0000 C   0  0
   18.5107  -15.1935    0.0000 C   0  0
   19.2219  -14.7756    0.0000 C   0  0
   19.0443  -13.9700    0.0000 N   0  0
   18.2232  -13.8899    0.0000 C   0  0
   17.8936  -14.6461    0.0000 C   0  0
  1  2  1  0
  1  6  1  0
  2  3  1  0
  3  4  1  0
  4  5  1  0
  5  6  1  0
  7  5  1  0
  7 11  1  0
  5  8  1  0
  8  9  1  0
  9 10  1  0
 10 11  1  0
  8 12  2  0
  2 13  1  0
 13 14  2  0
 14 18  1  0
 17 15  1  0
 15 16  2  0
 16 13  1  0
 17 18  1  0
 18 19  2  0
 19 20  1  0
 20 21  2  0
 21 22  1  0
 22 17  2  0
  9 23  1  0
 23 24  1  0
 24 27  2  0
 26 25  2  0
 25 29  1  0
 28 24  1  0
 26 27  1  0
 28 29  2  0
 29 30  1  0
 30 31  1  0
 31 32  2  0
 32 28  1  0
M  END