
  SciTegic01161211242D

 16 17  0  0  0  0            999 V2000
    1.8073   -0.4825    0.0000 C   0  0
    0.7969   -1.4930    0.0000 N   0  0
    1.0104   -0.6961    0.0000 C   0  0  2  0  0  0
    0.4584   -0.0830    0.0000 C   0  0
   -0.3486   -0.2545    0.0000 C   0  0
   -0.6842   -1.0082    0.0000 C   0  0
   -1.5046   -0.9219    0.0000 N   0  0
   -1.6762   -0.1150    0.0000 C   0  0
   -2.3906    0.2975    0.0000 C   0  0
   -2.3906    1.1225    0.0000 C   0  0
   -1.6762    1.5350    0.0000 C   0  0
   -0.9617    1.1225    0.0000 C   0  0
   -0.9617    0.2975    0.0000 C   0  0
    2.3906   -1.0659    0.0000 O   0  0
    2.0208    0.3143    0.0000 O   0  0
   -2.0567   -1.5350    0.0000 C   0  0
  3  2  1  6
  1  3  1  0
  3  4  1  0
  4  5  1  0
  5  6  2  0
  6  7  1  0
  7  8  1  0
  8  9  2  0
  9 10  1  0
 10 11  2  0
 11 12  1  0
 12 13  2  0
  5 13  1  0
  8 13  1  0
  1 14  2  0
  1 15  1  0
  7 16  1  0
M  END