
  SciTegic06051315212D

 54 56  0  0  0  0            999 V2000
    3.7333   -5.0166    0.0000 C   0  0
    4.4477   -4.6041    0.0000 C   0  0
    3.7333   -5.8416    0.0000 C   0  0
    5.1622   -5.0166    0.0000 C   0  0
    4.4477   -3.7791    0.0000 C   0  0
    5.1622   -5.8416    0.0000 O   0  0
    5.8766   -4.6041    0.0000 O   0  0
    6.5214   -5.1181    0.0000 C   0  0  1  0  0  0
    6.4840   -5.9422    0.0000 C   0  0
    7.3136   -4.8971    0.0000 C   0  0  2  0  0  0
    5.7955   -6.3967    0.0000 C   0  0
    7.2621   -6.2340    0.0000 C   0  0
    7.7710   -5.5848    0.0000 C   0  0  1  0  0  0
    8.6014   -5.5751    0.0000 C   0  0  1  0  0  0
    9.1273   -6.2139    0.0000 C   0  0
    8.9499   -7.0216    0.0000 C   0  0  1  0  0  0
    8.1056   -8.2211    0.0000 C   0  0  2  0  0  0
    8.2077   -7.3928    0.0000 C   0  0  2  0  0  0
    7.4504   -7.0406    0.0000 C   0  0  1  0  0  0
    6.8823   -7.6531    0.0000 O   0  0
    7.2905   -8.3819    0.0000 C   0  0  2  0  0  0
    6.8886   -9.1027    0.0000 O   0  0
    8.0998   -9.0456    0.0000 C   0  0
    8.9272   -8.2501    0.0000 O   0  0
    8.9998   -7.6040    0.0000 O   0  0
    8.3832   -4.7749    0.0000 C   0  0
    9.3124   -5.1582    0.0000 O   0  0
    9.3067   -4.3332    0.0000 C   0  0
   10.0183   -3.9160    0.0000 O   0  0
    8.5895   -3.9256    0.0000 C   0  0
    9.7753   -7.0259    0.0000 O   0  0
   10.1917   -6.3136    0.0000 C   0  0
   11.0167   -6.3180    0.0000 C   0  0
    9.7830   -5.5970    0.0000 O   0  0
   11.4330   -5.6057    0.0000 C   0  0
   12.2580   -5.6102    0.0000 C   0  0
    7.5916   -4.1210    0.0000 O   0  0
    7.1755   -3.4086    0.0000 C   0  0
    7.5844   -2.6921    0.0000 O   0  0
    6.3506   -3.4127    0.0000 C   0  0
    7.9832   -6.3791    0.0000 H   0  0
    5.9345   -2.7004    0.0000 C   0  0
    5.1095   -2.7044    0.0000 C   0  0
    4.6934   -1.9921    0.0000 C   0  0
    3.8684   -1.9963    0.0000 C   0  0
    3.4524   -1.2838    0.0000 C   0  0
    2.6274   -1.2880    0.0000 C   0  0
    6.0637   -9.1152    0.0000 C   0  0
    5.6621   -9.8359    0.0000 O   0  0
    5.6404   -8.4071    0.0000 C   0  0
    9.3139   -8.9789    0.0000 C   0  0
   10.1384   -9.0084    0.0000 O   0  0
    8.8761   -9.6781    0.0000 C   0  0
    6.6175   -7.0406    0.0000 H   0  0
  1  2  2  0
  1  3  1  0
  2  4  1  0
  2  5  1  0
  4  6  2  0
  4  7  1  0
  8  7  1  6
  9 12  2  0
  8  9  1  0
 13 10  1  0
 10  8  1  0
  9 11  1  0
 12 13  1  0
 13 14  1  0
 12 19  1  0
 14 15  1  0
 15 16  1  0
 18 16  1  0
 18 19  1  0
 17 18  1  0
 19 20  1  0
 20 21  1  0
 21 17  1  0
 21 22  1  1
 17 23  1  1
 17 24  1  0
 18 25  1  1
 14 26  1  0
 14 27  1  1
 27 28  1  0
 28 29  2  0
 28 30  1  0
 16 31  1  6
 31 32  1  0
 32 33  1  0
 32 34  2  0
 33 35  1  0
 35 36  1  0
 10 37  1  1
 37 38  1  0
 38 39  2  0
 38 40  1  0
 13 41  1  1
 40 42  1  0
 42 43  1  0
 43 44  1  0
 44 45  1  0
 45 46  1  0
 46 47  1  0
 22 48  1  0
 48 49  2  0
 48 50  1  0
 24 51  1  0
 51 52  2  0
 51 53  1  0
 19 54  1  6
M  END