
          11280715492D 1   1.00000     0.00000     0

 27 30  0     0  0            999 V2000
    3.6361  -12.4333    0.0000 N   0  0  0  0  0  0           0  0  0
    3.6349  -13.2607    0.0000 C   0  0  0  0  0  0           0  0  0
    4.3497  -13.6735    0.0000 C   0  0  0  0  0  0           0  0  0
    5.0662  -13.2602    0.0000 C   0  0  0  0  0  0           0  0  0
    5.0633  -12.4297    0.0000 C   0  0  0  0  0  0           0  0  0
    4.3479  -12.0205    0.0000 C   0  0  0  0  0  0           0  0  0
    5.7813  -13.6716    0.0000 C   0  0  0  0  0  0           0  0  0
    6.6727  -14.6674    0.0000 N   0  0  0  0  0  0           0  0  0
    7.0844  -13.9559    0.0000 C   0  0  0  0  0  0           0  0  0
    6.5237  -13.3334    0.0000 N   0  0  0  0  0  0           0  0  0
    5.8656  -14.4890    0.0000 C   0  0  0  0  0  0           0  0  0
    5.2500  -15.0371    0.0000 C   0  0  0  0  0  0           0  0  0
    4.5285  -14.6346    0.0000 C   0  0  0  0  0  0           0  0  0
    3.8214  -15.0580    0.0000 C   0  0  0  0  0  0           0  0  0
    3.8345  -15.8838    0.0000 C   0  0  0  0  0  0           0  0  0
    4.5606  -16.2843    0.0000 C   0  0  0  0  0  0           0  0  0
    5.2648  -15.8586    0.0000 C   0  0  0  0  0  0           0  0  0
    7.9091  -13.9363    0.0000 C   0  0  0  0  0  0           0  0  0
    8.3343  -14.6409    0.0000 C   0  0  0  0  0  0           0  0  0
    9.1583  -14.6216    0.0000 C   0  0  0  0  0  0           0  0  0
    9.5546  -13.8970    0.0000 C   0  0  0  0  0  0           0  0  0
    9.1207  -13.1903    0.0000 C   0  0  0  0  0  0           0  0  0
    8.2982  -13.2130    0.0000 C   0  0  0  0  0  0           0  0  0
    3.1274  -16.3089    0.0000 C   0  0  0  0  0  0           0  0  0
    2.4058  -15.9091    0.0000 N   0  0  0  0  0  0           0  0  0
    1.6987  -16.3342    0.0000 O   0  0  0  0  0  0           0  0  0
    3.1420  -17.1338    0.0000 C   0  0  0  0  0  0           0  0  0
  1  2  2  0     0  0
 13 14  2  0     0  0
  4  7  1  0     0  0
 14 15  1  0     0  0
  3  4  2  0     0  0
 15 16  2  0     0  0
 16 17  1  0     0  0
 17 12  2  0     0  0
 11 12  1  0     0  0
  4  5  1  0     0  0
  9 18  1  0     0  0
  2  3  1  0     0  0
 18 19  2  0     0  0
  8  9  1  0     0  0
 19 20  1  0     0  0
  9 10  2  0     0  0
 20 21  2  0     0  0
 10  7  1  0     0  0
 21 22  1  0     0  0
  7 11  2  0     0  0
 22 23  2  0     0  0
 23 18  1  0     0  0
 11  8  1  0     0  0
 15 24  1  0     0  0
  5  6  2  0     0  0
 24 25  2  0     0  0
  6  1  1  0     0  0
 25 26  1  0     0  0
 12 13  1  0     0  0
 24 27  1  0     0  0
M  END