
  SciTegic12231509382D

 14 14  0  0  0  0            999 V2000
    2.6251   -8.2001    0.0000 C   0  0
    2.6251   -9.0251    0.0000 C   0  0
    3.3370   -9.4334    0.0000 C   0  0
    4.0491   -9.0251    0.0000 C   0  0
    4.0491   -8.2001    0.0000 C   0  0
    3.3370   -7.7835    0.0000 C   0  0
    4.7629   -9.4386    0.0000 C   0  0
    5.4780   -9.0271    0.0000 C   0  0
    6.1919   -9.4408    0.0000 N   0  0
    5.4792   -8.2021    0.0000 C   0  0
    3.3370   -6.9584    0.0000 O   0  0
    1.9094   -7.7897    0.0000 O   0  0
    4.0515   -6.5459    0.0000 C   0  0
    1.1960   -8.2042    0.0000 C   0  0
  1  2  1  0
  1  6  2  0
  2  3  2  0
  3  4  1  0
  4  5  2  0
  5  6  1  0
  4  7  1  0
  7  8  1  0
  8  9  1  0
  8 10  1  0
  6 11  1  0
  1 12  1  0
 11 13  1  0
 12 14  1  0
M  END