
          11280715362D 1   1.00000     0.00000     0

 27 29  0     0  0            999 V2000
    4.5917   -6.7125    0.0000 C   0  0  0  0  0  0           0  0  0
    4.0667   -6.4125    0.0000 C   0  0  3  0  0  0           0  0  0
    4.5917   -7.3125    0.0000 C   0  0  0  0  0  0           0  0  0
    4.0667   -7.6125    0.0000 O   0  0  0  0  0  0           0  0  0
    3.5417   -7.3167    0.0000 C   0  0  3  0  0  0           0  0  0
    3.5417   -6.7125    0.0000 C   0  0  3  0  0  0           0  0  0
    5.1042   -6.4125    0.0000 C   0  0  0  0  0  0           0  0  0
    5.6292   -7.3125    0.0000 C   0  0  0  0  0  0           0  0  0
    5.1042   -7.6125    0.0000 C   0  0  0  0  0  0           0  0  0
    5.6292   -6.7125    0.0000 C   0  0  0  0  0  0           0  0  0
    3.0167   -6.4125    0.0000 C   0  0  0  0  0  0           0  0  0
    4.0667   -5.8042    0.0000 C   0  0  0  0  0  0           0  0  0
    3.0167   -5.8042    0.0000 C   0  0  0  0  0  0           0  0  0
    6.1542   -7.6042    0.0000 C   0  0  3  0  0  0           0  0  0
    3.5542   -5.5042    0.0000 C   0  0  0  0  0  0           0  0  0
    5.0917   -5.8125    0.0000 O   0  0  0  0  0  0           0  0  0
    2.9792   -7.1167    0.0000 C   0  0  0  0  0  0           0  0  0
    3.3417   -7.8875    0.0000 C   0  0  0  0  0  0           0  0  0
    6.6667   -7.3042    0.0000 C   0  0  0  0  0  0           0  0  0
    5.7292   -8.0250    0.0000 C   0  0  0  0  0  0           0  0  0
    6.5667   -8.0250    0.0000 C   0  0  0  0  0  0           0  0  0
    3.5667   -4.9042    0.0000 C   0  0  0  0  0  0           0  0  0
    7.1917   -7.6000    0.0000 C   0  0  0  0  0  0           0  0  0
    8.7417   -7.3000    0.0000 C   0  0  0  0  0  0           0  0  0
    8.2292   -7.6000    0.0000 C   0  0  0  0  0  0           0  0  0
    7.7042   -7.3000    0.0000 C   0  0  0  0  0  0           0  0  0
    9.2667   -7.5917    0.0000 C   0  0  0  0  0  0           0  0  0
  2  1  1  0     0  0
  3  1  1  0     0  0
  4  3  1  0     0  0
  5  4  1  0     0  0
  6  2  1  0     0  0
  7  1  2  0     0  0
  8 10  2  0     0  0
  9  3  2  0     0  0
 10  7  1  0     0  0
 11  6  1  0     0  0
 12  2  1  0     0  0
 13 15  2  0     0  0
 14  8  1  0     0  0
 15 12  1  0     0  0
 16  7  1  0     0  0
 17  5  1  0     0  0
 18  5  1  0     0  0
 19 14  1  0     0  0
 20 14  1  0     0  0
 21 14  1  0     0  0
 22 15  1  0     0  0
 23 19  1  0     0  0
 24 25  1  0     0  0
 25 26  1  0     0  0
 26 23  1  0     0  0
 27 24  1  0     0  0
  8  9  1  0     0  0
  5  6  1  0     0  0
 13 11  1  0     0  0
M  END