
          11280715142D 1   1.00000     0.00000     0

 16 16  0     0  0            999 V2000
    7.7000   -6.6917    0.0000 C   0  0  0  0  0  0           0  0  0
    7.7042   -6.1125    0.0000 O   0  0  0  0  0  0           0  0  0
    8.2000   -7.0000    0.0000 N   0  0  0  0  0  0           0  0  0
    7.1750   -6.9917    0.0000 C   0  0  0  0  0  0           0  0  0
    6.6417   -6.6875    0.0000 C   0  0  0  0  0  0           0  0  0
    5.6042   -6.0917    0.0000 C   0  0  0  0  0  0           0  0  0
    6.6417   -6.0917    0.0000 C   0  0  0  0  0  0           0  0  0
    6.1250   -6.9875    0.0000 C   0  0  0  0  0  0           0  0  0
    8.7375   -6.7042    0.0000 O   0  0  0  0  0  0           0  0  0
    6.1250   -5.7792    0.0000 C   0  0  0  0  0  0           0  0  0
    5.6042   -6.6917    0.0000 C   0  0  0  0  0  0           0  0  0
    5.0667   -5.8000    0.0000 O   0  0  0  0  0  0           0  0  0
    4.5500   -6.1125    0.0000 C   0  0  0  0  0  0           0  0  0
    4.0167   -5.8167    0.0000 C   0  0  0  0  0  0           0  0  0
    3.5042   -6.1250    0.0000 C   0  0  0  0  0  0           0  0  0
    2.9792   -5.8292    0.0000 C   0  0  0  0  0  0           0  0  0
  2  1  2  0     0  0
  3  1  1  0     0  0
  4  1  1  0     0  0
  5  4  1  0     0  0
  6 11  1  0     0  0
  7  5  2  0     0  0
  8  5  1  0     0  0
  9  3  1  0     0  0
 10  7  1  0     0  0
 11  8  2  0     0  0
 12  6  1  0     0  0
 13 12  1  0     0  0
 14 13  1  0     0  0
 15 14  1  0     0  0
 16 15  1  0     0  0
 10  6  2  0     0  0
M  END