
          11280715312D 1   1.00000     0.00000     0

 38 42  0     0  0            999 V2000
    8.4750   -0.9250    0.0000 C   0  0  0  0  0  0           0  0  0
    7.7542   -1.3417    0.0000 S   0  0  3  0  0  0           0  0  0
    8.4667   -0.0917    0.0000 C   0  0  0  0  0  0           0  0  0
    9.2542    0.1583    0.0000 N   0  3  0  0  0  0           0  0  0
    9.2542   -1.1792    0.0000 N   0  0  0  0  0  0           0  0  0
    4.8875   -3.0042    0.0000 C   0  0  0  0  0  0           0  0  0
    4.8875   -3.8292    0.0000 N   0  0  0  0  0  0           0  0  0
    9.7417   -0.5042    0.0000 O   0  0  0  0  0  0           0  0  0
    3.4542   -3.8292    0.0000 C   0  0  0  0  0  0           0  0  0
    7.0292   -1.7667    0.0000 N   0  0  3  0  0  0           0  0  0
    4.1667   -4.2417    0.0000 C   0  0  0  0  0  0           0  0  0
    4.1667   -2.5917    0.0000 N   0  0  0  0  0  0           0  0  0
    3.4542   -3.0042    0.0000 C   0  0  0  0  0  0           0  0  0
    5.6042   -2.5917    0.0000 N   0  0  3  0  0  0           0  0  0
    7.8292    0.4125    0.0000 C   0  0  0  0  0  0           0  0  0
    2.7417   -4.2417    0.0000 C   0  0  0  0  0  0           0  0  0
    2.7417   -2.5917    0.0000 C   0  0  0  0  0  0           0  0  0
    7.3292   -0.6250    0.0000 O   0  0  0  0  0  0           0  0  0
    8.1750   -2.0667    0.0000 O   0  0  0  0  0  0           0  0  0
    2.0292   -3.8292    0.0000 C   0  0  0  0  0  0           0  0  0
    9.5042    0.9458    0.0000 O   0  5  0  0  0  0           0  0  0
    2.0292   -3.0125    0.0000 C   0  0  0  0  0  0           0  0  0
    7.0292   -2.5917    0.0000 C   0  0  0  0  0  0           0  0  0
    6.3167   -1.3542    0.0000 C   0  0  0  0  0  0           0  0  0
    6.3167   -3.0042    0.0000 C   0  0  0  0  0  0           0  0  0
    5.6042   -1.7667    0.0000 C   0  0  0  0  0  0           0  0  0
    7.1417   -0.0292    0.0000 C   0  0  0  0  0  0           0  0  0
    7.9917    1.2250    0.0000 C   0  0  0  0  0  0           0  0  0
    6.3375    0.1333    0.0000 C   0  0  0  0  0  0           0  0  0
    7.5417    1.9125    0.0000 C   0  0  0  0  0  0           0  0  0
    5.8792    0.8208    0.0000 C   0  0  0  0  0  0           0  0  0
    6.7292    2.0833    0.0000 C   0  0  0  0  0  0           0  0  0
    6.0542    1.6333    0.0000 C   0  0  0  0  0  0           0  0  0
    4.1667   -5.0667    0.0000 N   0  0  0  0  0  0           0  0  0
    1.3042   -4.2542    0.0000 O   0  0  0  0  0  0           0  0  0
    1.3042   -2.5917    0.0000 O   0  0  0  0  0  0           0  0  0
    0.5917   -3.0125    0.0000 C   0  0  0  0  0  0           0  0  0
    0.5875   -3.8417    0.0000 C   0  0  0  0  0  0           0  0  0
  2  1  1  0     0  0
  3  1  1  0     0  0
  4  3  2  0     0  0
  5  1  2  0     0  0
  6 14  1  0     0  0
  7  6  1  0     0  0
  8  5  1  0     0  0
  9 13  2  0     0  0
 10  2  1  0     0  0
 11  7  2  0     0  0
 12  6  2  0     0  0
 13 12  1  0     0  0
 14 26  1  0     0  0
 15  3  1  0     0  0
 16  9  1  0     0  0
 17 13  1  0     0  0
 18  2  2  0     0  0
 19  2  2  0     0  0
 20 22  1  0     0  0
 21  4  1  0     0  0
 22 17  2  0     0  0
 23 10  1  0     0  0
 24 10  1  0     0  0
 25 23  1  0     0  0
 26 24  1  0     0  0
 27 15  2  0     0  0
 28 15  1  0     0  0
 29 27  1  0     0  0
 30 28  2  0     0  0
 31 29  2  0     0  0
 32 30  1  0     0  0
 33 32  2  0     0  0
 34 11  1  0     0  0
 35 20  1  0     0  0
 36 22  1  0     0  0
 37 36  1  0     0  0
 38 35  1  0     0  0
  4  8  1  0     0  0
 25 14  1  0     0  0
 31 33  1  0     0  0
  9 11  1  0     0  0
 16 20  2  0     0  0
M  CHG  2   4   1  21  -1
M  END