
  SciTegic02271514512D

 30 33  0  0  0  0            999 V2000
   14.3992   -6.1552    0.0000 N   0  0
   12.5781   -7.3219    0.0000 C   0  0
   13.3729   -7.1305    0.0000 N   0  0
   13.6045   -6.3466    0.0000 C   0  0
   13.0413   -5.7540    0.0000 C   0  0
   12.2466   -5.9454    0.0000 C   0  0
   12.0150   -6.7294    0.0000 N   0  0
   13.2730   -4.9700    0.0000 F   0  0
   11.5981   -9.1965    0.0000 C   0  0
   11.5761   -8.3793    0.0000 C   0  0
   10.8574   -7.9898    0.0000 C   0  0
   10.1607   -8.4174    0.0000 C   0  0
   10.1827   -9.2346    0.0000 C   0  0
   10.9014   -9.6241    0.0000 N   0  0
   12.3821   -9.4281    0.0000 N   0  0
   12.3465   -8.1059    0.0000 C   0  0
   12.8446   -8.7541    0.0000 C   0  0
    9.4420   -8.0279    0.0000 F   0  0
   14.9622   -6.7475    0.0000 C   0  0  1  0  0  0
   14.7273   -7.5318    0.0000 C   0  0
   15.2864   -8.1229    0.0000 C   0  0
   16.0822   -7.9356    0.0000 C   0  0
   16.3159   -7.1516    0.0000 C   0  0  2  0  0  0
   15.7538   -6.5548    0.0000 C   0  0
   17.1110   -6.9629    0.0000 N   0  0
   17.6719   -7.5572    0.0000 C   0  0
   17.4377   -8.3401    0.0000 O   0  0
   18.4670   -7.3686    0.0000 N   0  0
   19.0279   -7.9629    0.0000 C   0  0
   18.7012   -6.5857    0.0000 C   0  0
  2  3  1  0
  3  4  2  0
  4  5  1  0
  5  6  2  0
  6  7  1  0
  2  7  2  0
  5  8  1  0
  9 10  1  0
 10 11  2  0
 11 12  1  0
 12 13  2  0
 13 14  1  0
  9 14  2  0
 16 17  2  0
 15 17  1  0
  9 15  1  0
 10 16  1  0
 12 18  1  0
  2 16  1  0
  1  4  1  0
 19  1  1  6
 19 20  1  0
 19 24  1  0
 20 21  1  0
 21 22  1  0
 22 23  1  0
 23 24  1  0
 23 25  1  6
 25 26  1  0
 26 27  2  0
 26 28  1  0
 28 29  1  0
 28 30  1  0
M  END