
  SciTegic12161611402D

 45 48  0  0  0  0            999 V2000
    3.7889    0.0269    0.0000 O   0  0
    2.5889    0.0182    0.0000 C   0  0
    1.7138    1.2033    0.0000 N   0  0
    2.0825    2.3453    0.0000 C   0  0
    1.7138   -1.2033    0.0000 N   0  0
    2.0907   -2.3426    0.0000 C   0  0
    0.2917   -0.7475    0.0000 C   0  0
    0.2917    0.7475    0.0000 C   0  0
   -1.0028    1.5132    0.0000 C   0  0
   -2.3155    0.7475    0.0000 C   0  0
   -3.6187    1.4919    0.0000 N   0  0
   -3.6267    2.9927    0.0000 S   0  0
   -4.9300    3.7369    0.0000 C   0  0
   -6.2255    2.9808    0.0000 C   0  0
   -7.5281    3.7247    0.0000 C   0  0
   -7.5351    5.2247    0.0000 C   0  0
   -8.8400    5.9662    0.0000 O   0  0
   -9.8755    5.3599    0.0000 C   0  0
   -6.2397    5.9808    0.0000 C   0  0
   -6.2437    7.4816    0.0000 O   0  0
   -5.2064    8.0850    0.0000 C   0  0
   -4.9371    5.2369    0.0000 C   0  0
   -2.5905    3.5979    0.0000 O   0  0
   -2.5844    2.3981    0.0000 O   0  0
   -2.3155   -0.7475    0.0000 C   0  0
   -3.6187   -1.4919    0.0000 O   0  0
   -3.6267   -2.9927    0.0000 C   0  0
   -4.9282   -3.7385    0.0000 C   0  0
   -4.9331   -5.2385    0.0000 C   0  0
   -6.2337   -5.9874    0.0000 O   0  0
   -6.2365   -7.4882    0.0000 C   0  0
   -7.5371   -8.2371    0.0000 C   0  0
   -7.5399   -9.7379    0.0000 C   0  0
   -8.8405  -10.4867    0.0000 C   0  0
   -8.8433  -11.9876    0.0000 N   0  0
   -9.8832  -12.5863    0.0000 C   0  0
   -7.8050  -12.5891    0.0000 C   0  0
   -3.6365   -5.9928    0.0000 C   0  0
   -2.3350   -5.2470    0.0000 C   0  0
   -1.0361   -5.9990    0.0000 O   0  0
    0.2650   -5.2510    0.0000 C   0  0
    1.5638   -6.0029    0.0000 C   0  0
    2.6042   -5.4049    0.0000 C   0  0
   -2.3301   -3.7470    0.0000 C   0  0
   -1.0028   -1.5132    0.0000 C   0  0
  1  2  2  0
  2  3  1  0
  3  4  1  0
  2  5  1  0
  5  6  1  0
  5  7  1  0
  7  8  2  0
  3  8  1  0
  8  9  1  0
  9 10  2  0
 10 11  1  0
 11 12  1  0
 12 13  1  0
 13 14  2  0
 14 15  1  0
 15 16  2  0
 16 17  1  0
 17 18  1  0
 16 19  1  0
 19 20  1  0
 20 21  1  0
 19 22  2  0
 13 22  1  0
 12 23  2  0
 12 24  2  0
 10 25  1  0
 25 26  1  0
 26 27  1  0
 27 28  2  0
 28 29  1  0
 29 30  1  0
 30 31  1  0
 31 32  1  0
 32 33  1  0
 33 34  1  0
 34 35  1  0
 35 36  1  0
 35 37  1  0
 29 38  2  0
 38 39  1  0
 39 40  1  0
 40 41  1  0
 41 42  1  0
 42 43  1  0
 39 44  2  0
 27 44  1  0
 25 45  2  0
  7 45  1  0
M  END