
          11280715512D 1   1.00000     0.00000     0

 40 44  0     0  0            999 V2000
   -4.7806   -8.6000    0.0000 C   0  0  0  0  0  0           0  0  0
   -4.7818   -9.4273    0.0000 C   0  0  0  0  0  0           0  0  0
   -4.0669   -9.8402    0.0000 C   0  0  0  0  0  0           0  0  0
   -4.0687   -8.1872    0.0000 C   0  0  0  0  0  0           0  0  0
   -3.3485   -9.4244    0.0000 C   0  0  0  0  0  0           0  0  0
   -3.3534   -8.5963    0.0000 C   0  0  0  0  0  0           0  0  0
   -2.7063   -8.0704    0.0000 N   0  0  3  0  0  0           0  0  0
   -2.6923   -9.9389    0.0000 C   0  0  0  0  0  0           0  0  0
   -1.8941   -8.2447    0.0000 C   0  0  0  0  0  0           0  0  0
   -1.8816   -9.7459    0.0000 N   0  0  0  0  0  0           0  0  0
   -1.5293   -8.9911    0.0000 N   0  0  3  0  0  0           0  0  0
   -1.3858   -7.5949    0.0000 O   0  0  0  0  0  0           0  0  0
   -2.8688  -10.7448    0.0000 C   0  0  3  0  0  0           0  0  0
   -0.7043   -8.9838    0.0000 C   0  0  0  0  0  0           0  0  0
   -0.2855   -9.6945    0.0000 C   0  0  0  0  0  0           0  0  0
    0.5395   -9.6872    0.0000 N   0  0  0  0  0  0           0  0  0
   -0.6916  -10.4126    0.0000 O   0  0  0  0  0  0           0  0  0
   -2.8988   -7.2682    0.0000 C   0  0  0  0  0  0           0  0  0
   -2.3003   -6.7004    0.0000 C   0  0  0  0  0  0           0  0  0
   -2.4928   -5.8981    0.0000 C   0  0  3  0  0  0           0  0  0
   -1.5093   -6.9347    0.0000 O   0  0  0  0  0  0           0  0  0
   -2.7125   -5.0958    0.0000 C   0  0  0  0  0  0           0  0  0
   -1.6937   -5.6929    0.0000 C   0  0  0  0  0  0           0  0  0
   -3.2901   -6.1102    0.0000 C   0  0  0  0  0  0           0  0  0
    0.9583  -10.3979    0.0000 C   0  0  0  0  0  0           0  0  0
    0.5503  -11.1138    0.0000 C   0  0  0  0  0  0           0  0  0
    0.9685  -11.8241    0.0000 C   0  0  0  0  0  0           0  0  0
    1.7943  -11.8171    0.0000 C   0  0  0  0  0  0           0  0  0
    2.2002  -11.0940    0.0000 C   0  0  0  0  0  0           0  0  0
    1.7797  -10.3867    0.0000 C   0  0  0  0  0  0           0  0  0
    3.0252  -11.0837    0.0000 N   0  0  3  0  0  0           0  0  0
   -3.6525  -10.9945    0.0000 C   0  0  0  0  0  0           0  0  0
   -3.8301  -11.7965    0.0000 C   0  0  0  0  0  0           0  0  0
   -3.2230  -12.3556    0.0000 C   0  0  0  0  0  0           0  0  0
   -2.4353  -12.1071    0.0000 C   0  0  0  0  0  0           0  0  0
   -2.2547  -11.2994    0.0000 C   0  0  0  0  0  0           0  0  0
    3.5186  -11.7446    0.0000 C   0  0  0  0  0  0           0  0  0
    4.3000  -11.4800    0.0000 C   0  0  0  0  0  0           0  0  0
    4.2897  -10.6550    0.0000 C   0  0  0  0  0  0           0  0  0
    3.5019  -10.4099    0.0000 C   0  0  0  0  0  0           0  0  0
  4  1  1  0     0  0
 19 20  1  0     0  0
  8 10  2  0     0  0
 19 21  2  0     0  0
 20 22  1  0     0  0
  9 11  1  0     0  0
 20 23  1  0     0  0
 10 11  1  0     0  0
 20 24  1  0     0  0
  2  3  1  0     0  0
 16 25  1  0     0  0
  9 12  2  0     0  0
 25 26  2  0     0  0
  5  6  1  0     0  0
 26 27  1  0     0  0
  8 13  1  0     0  0
 27 28  2  0     0  0
  3  5  2  0     0  0
 28 29  1  0     0  0
 11 14  1  0     0  0
 29 30  2  0     0  0
 30 25  1  0     0  0
  6  7  1  0     0  0
 29 31  1  0     0  0
 13 32  1  0     0  0
 14 15  1  0     0  0
  1  2  2  0     0  0
 15 16  1  0     0  0
  5  8  1  0     0  0
 15 17  2  0     0  0
 13 36  1  0     0  0
 32 33  1  0     0  0
 33 34  1  0     0  0
 34 35  1  0     0  0
 35 36  1  0     0  0
 31 37  1  0     0  0
  6  4  2  0     0  0
  7 18  1  0     0  0
  7  9  1  0     0  0
 18 19  1  0     0  0
 37 38  1  0     0  0
 38 39  1  0     0  0
 39 40  1  0     0  0
 40 31  1  0     0  0
M  END