
  SciTegic12091614052D

 27 31  0  0  0  0            999 V2000
   -2.3155    0.7475    0.0000 C   0  0
   -2.3155   -0.7475    0.0000 C   0  0
   -1.0028   -1.5132    0.0000 C   0  0
   -1.0028    1.5132    0.0000 C   0  0
    0.2917    0.7475    0.0000 C   0  0
    0.2917   -0.7475    0.0000 N   0  0
    1.7138   -1.2033    0.0000 C   0  0
    2.5889    0.0182    0.0000 C   0  0
    1.7138    1.2033    0.0000 C   0  0
    2.1855   -2.6254    0.0000 C   0  0
    3.3606   -2.8684    0.0000 O   0  0
    1.3877   -3.5218    0.0000 C   0  0
    2.1749    2.6315    0.0000 C   0  0
   -3.6168    1.4950    0.0000 N   0  0
   -3.6203    2.9951    0.0000 C   0  0
   -4.9210    3.7422    0.0000 C   0  0
   -6.2184    2.9893    0.0000 O   0  0
   -6.2150    1.4893    0.0000 C   0  0
   -4.9143    0.7422    0.0000 C   0  0
    3.2915    5.4383    0.0000 C   0  0
    4.2292    4.2424    0.0000 C   0  0
    3.6778    2.8528    0.0000 C   0  0
    1.8058    5.2040    0.0000 C   0  0
    1.2544    3.8144    0.0000 N   0  0
   -0.2355    3.9152    0.0000 C   0  0
   -0.5984    5.3734    0.0000 C   0  0
    0.6521    6.1522    0.0000 N   0  0
  1  2  1  0
  1  4  2  0
  2  3  2  0
  3  6  1  0
  5  4  1  0
  5  6  1  0
  6  7  1  0
  7  8  2  0
  8  9  1  0
  9  5  2  0
  7 10  1  0
 10 11  2  0
 10 12  1  0
  9 13  1  0
 14 15  1  0
 14 19  1  0
 15 16  1  0
 16 17  1  0
 17 18  1  0
 18 19  1  0
  1 14  1  0
 13 24  1  0
 13 22  2  0
 23 20  1  0
 20 21  2  0
 21 22  1  0
 23 24  1  0
 24 25  1  0
 25 26  2  0
 26 27  1  0
 27 23  2  0
M  END