
  SciTegic08161218152D

 50 53  0  0  1  0            999 V2000
    6.3119   -5.9362    0.0000 C   0  0  2  0  0  0
    6.8003   -1.8201    0.0000 C   0  0  2  0  0  0
    6.4622   -2.5715    0.0000 O   0  0
    7.6185   -1.7325    0.0000 C   0  0  1  0  0  0
    7.0257   -5.5229    0.0000 C   0  0  1  0  0  0
    8.1069   -2.4045    0.0000 C   0  0  2  0  0  0
    7.7688   -3.1559    0.0000 C   0  0  2  0  0  0
    5.5980   -6.3411    0.0000 N   0  0
    6.9506   -3.2436    0.0000 C   0  0
    5.4895   -1.2315    0.0000 C   0  0
    5.0094   -0.5552    0.0000 C   0  0  1  0  0  0
    5.5980   -5.5229    0.0000 C   0  0  2  0  0  0
    5.3476    0.1962    0.0000 C   0  0  1  0  0  0
    7.7396   -5.9362    0.0000 C   0  0  2  0  0  0
    7.2428   -4.8884    0.0000 O   0  0
    6.3161   -1.1439    0.0000 O   0  0
    6.4246   -5.5229    0.0000 C   0  0  1  0  0  0
    4.8842   -5.9236    0.0000 C   0  0
    6.1658    0.2755    0.0000 N   0  0
    4.1620   -6.3286    0.0000 C   0  0
    4.8633    0.8641    0.0000 C   0  0
    6.6124   -3.9950    0.0000 O   0  0
    3.4440   -5.9236    0.0000 C   0  0
    6.5122    1.0352    0.0000 C   0  0
    5.1514   -1.9829    0.0000 C   0  0  2  0  0  0
    6.2034   -4.7131    0.0000 C   0  0
    2.7343   -6.3369    0.0000 C   0  0
    4.8842   -5.0971    0.0000 O   0  0
    4.1703   -7.1635    0.0000 C   0  0
    6.0280    1.7032    0.0000 O   0  0
    8.3574   -6.4872    0.0000 S   0  0
    4.0451    0.7848    0.0000 O   0  0
    7.9567   -0.9768    0.0000 O   0  0
    7.0257   -6.3411    0.0000 O   0  0
    8.2572   -3.8239    0.0000 O   0  0
    2.7343   -7.1635    0.0000 C   0  0
    3.4565   -7.5767    0.0000 C   0  0
    8.9293   -2.3169    0.0000 O   0  0
    4.1871   -0.6429    0.0000 O   0  0
    5.3976   -4.8258    0.0000 O   0  0
    5.6356   -2.6550    0.0000 O   0  0
    3.9867   -2.8178    0.0000 O   0  0
    4.3248   -2.0664    0.0000 C   0  0
    7.3305    1.1146    0.0000 C   0  0
    5.2015    1.6239    0.0000 C   0  0
    2.0080   -5.9236    0.0000 C   0  0
    8.1904   -7.2887    0.0000 C   0  0
    2.0080   -7.5810    0.0000 C   0  0
    1.3024   -6.3411    0.0000 C   0  0
    1.3024   -7.1677    0.0000 C   0  0
  2  3  1  0
  3  9  1  0
  4  6  1  0
  5  1  1  0
  6  7  1  0
  7  9  1  0
  1  8  1  6
  9 22  1  0
 10 16  1  0
 11 10  1  0
 12  1  1  0
 13 11  1  0
 14  5  1  0
 15 17  1  0
  2 16  1  1
 17 12  1  0
 18  8  1  0
 13 19  1  6
 20 18  1  0
 21 13  1  0
 22 26  1  0
 23 20  2  0
 24 19  1  0
 25 10  1  0
 17 26  1  1
 27 23  1  0
 28 18  2  0
 29 20  1  0
 30 24  2  0
 14 31  1  6
 32 21  2  0
  4 33  1  6
  5 34  1  6
  7 35  1  1
 36 37  1  0
 37 29  2  0
  6 38  1  1
 11 39  1  6
 12 40  1  1
 25 41  1  6
 42 43  1  0
 43 25  1  0
 44 24  1  0
 45 21  1  0
 46 27  2  0
 47 31  1  0
 48 36  2  0
 49 46  1  0
 50 48  1  0
 14 15  1  0
 36 27  1  0
  2  4  1  0
 50 49  2  0
M  END