
          11280715492D 1   1.00000     0.00000     0

 27 30  0     0  0            999 V2000
   11.3194  -12.5083    0.0000 N   0  0  0  0  0  0           0  0  0
   11.3182  -13.3357    0.0000 C   0  0  0  0  0  0           0  0  0
   12.0331  -13.7485    0.0000 C   0  0  0  0  0  0           0  0  0
   12.7495  -13.3352    0.0000 C   0  0  0  0  0  0           0  0  0
   12.7466  -12.5047    0.0000 C   0  0  0  0  0  0           0  0  0
   12.0313  -12.0955    0.0000 C   0  0  0  0  0  0           0  0  0
   13.4646  -13.7466    0.0000 C   0  0  0  0  0  0           0  0  0
   14.3561  -14.7424    0.0000 N   0  0  0  0  0  0           0  0  0
   14.7677  -14.0309    0.0000 C   0  0  0  0  0  0           0  0  0
   14.2070  -13.4084    0.0000 N   0  0  0  0  0  0           0  0  0
   13.5490  -14.5640    0.0000 C   0  0  0  0  0  0           0  0  0
   12.9333  -15.1121    0.0000 C   0  0  0  0  0  0           0  0  0
   12.2119  -14.7096    0.0000 C   0  0  0  0  0  0           0  0  0
   11.5047  -15.1330    0.0000 C   0  0  0  0  0  0           0  0  0
   11.5178  -15.9588    0.0000 C   0  0  0  0  0  0           0  0  0
   12.2440  -16.3593    0.0000 C   0  0  0  0  0  0           0  0  0
   12.9481  -15.9336    0.0000 C   0  0  0  0  0  0           0  0  0
   15.5925  -14.0113    0.0000 C   0  0  0  0  0  0           0  0  0
   16.0177  -14.7159    0.0000 C   0  0  0  0  0  0           0  0  0
   16.8417  -14.6966    0.0000 C   0  0  0  0  0  0           0  0  0
   17.2379  -13.9720    0.0000 C   0  0  0  0  0  0           0  0  0
   16.8041  -13.2653    0.0000 C   0  0  0  0  0  0           0  0  0
   15.9815  -13.2880    0.0000 C   0  0  0  0  0  0           0  0  0
   10.8108  -16.3839    0.0000 C   0  0  0  0  0  0           0  0  0
   10.0891  -15.9841    0.0000 N   0  0  0  0  0  0           0  0  0
    9.3820  -16.4092    0.0000 O   0  0  0  0  0  0           0  0  0
   10.8254  -17.2088    0.0000 N   0  0  0  0  0  0           0  0  0
  1  2  2  0     0  0
 13 14  2  0     0  0
  4  7  1  0     0  0
 14 15  1  0     0  0
  3  4  2  0     0  0
 15 16  2  0     0  0
 16 17  1  0     0  0
 17 12  2  0     0  0
 11 12  1  0     0  0
  4  5  1  0     0  0
  9 18  1  0     0  0
  2  3  1  0     0  0
 18 19  2  0     0  0
  8  9  1  0     0  0
 19 20  1  0     0  0
  9 10  2  0     0  0
 20 21  2  0     0  0
 10  7  1  0     0  0
 21 22  1  0     0  0
  7 11  2  0     0  0
 22 23  2  0     0  0
 23 18  1  0     0  0
 11  8  1  0     0  0
 15 24  1  0     0  0
  5  6  2  0     0  0
 24 25  2  0     0  0
  6  1  1  0     0  0
 25 26  1  0     0  0
 12 13  1  0     0  0
 24 27  1  0     0  0
M  END