
  SciTegic03291108472D

 23 26  0  0  0  0            999 V2000
   -1.1000    1.9697    0.0000 S   0  0
    0.3991   -0.3478    0.0000 S   0  0
    1.1136    0.8897    0.0000 N   0  0
    0.3991    2.1272    0.0000 N   0  0
    1.8673   -0.4247    0.0000 N   0  0
    1.1998   -1.5808    0.0000 N   0  0
    2.4193   -1.0378    0.0000 N   0  0
    2.0068   -1.7523    0.0000 N   0  0
   -0.3153    0.8897    0.0000 C   0  0
   -1.1000    0.6348    0.0000 C   0  0
   -0.3153    1.7147    0.0000 C   0  0
    0.3991    0.4772    0.0000 C   0  0
   -1.3549   -0.1498    0.0000 C   0  0
   -1.5849    1.3022    0.0000 C   0  0
    1.1136   -0.7603    0.0000 C   0  0
   -0.8029   -0.7629    0.0000 C   0  0
    1.1136    1.7147    0.0000 C   0  0
   -2.1619   -0.3214    0.0000 C   0  0
   -1.0578   -1.5476    0.0000 C   0  0
   -2.4168   -1.1060    0.0000 C   0  0
   -1.8648   -1.7191    0.0000 C   0  0
    0.0041   -0.5914    0.0000 C   0  0
    2.0388    0.3822    0.0000 C   0  0
  1 11  1  0
  1 14  1  0
  2 12  1  0
  2 15  1  0
  3 12  1  0
  3 17  2  0
  4 11  2  0
  4 17  1  0
  5  7  1  0
  5 15  1  0
  5 23  1  0
  6  8  1  0
  6 15  2  0
  7  8  2  0
  9 10  1  0
  9 11  1  0
  9 12  2  0
 10 13  1  0
 10 14  2  0
 13 16  2  0
 13 18  1  0
 16 19  1  0
 16 22  1  0
 18 20  2  0
 19 21  2  0
 20 21  1  0
M  END