
  CDK    9/16/09,9:19

 42 48  0  0  0  0  0  0  0  0999 V2000
    7.5432   -0.2257    0.0000 C   0  0  0  0  0  0  0  0  0  0  0  0
    7.5415   -1.0488    0.0000 C   0  0  0  0  0  0  0  0  0  0  0  0
    8.2519   -1.4591    0.0000 C   0  0  0  0  0  0  0  0  0  0  0  0
    8.2492    0.1887    0.0000 C   0  0  0  0  0  0  0  0  0  0  0  0
    8.9648   -0.2202    0.0000 C   0  0  0  0  0  0  0  0  0  0  0  0
    8.9629   -1.0519    0.0000 C   0  0  0  0  0  0  0  0  0  0  0  0
    9.6767   -1.4659    0.0000 C   0  0  0  0  0  0  0  0  0  0  0  0
   10.3991   -1.0509    0.0000 C   0  0  0  0  0  0  0  0  0  0  0  0
   10.4009   -0.2233    0.0000 C   0  0  0  0  0  0  0  0  0  0  0  0
    9.6803    0.1978    0.0000 O   0  0  0  0  0  0  0  0  0  0  0  0
   11.1078   -0.6291    0.0000 O   0  0  0  0  0  0  0  0  0  0  0  0
   11.1078    0.1968    0.0000 C   0  0  0  0  0  0  0  0  0  0  0  0
   11.8223   -0.2102    0.0000 C   0  0  0  0  0  0  0  0  0  0  0  0
   12.5326    0.2087    0.0000 C   0  0  0  0  0  0  0  0  0  0  0  0
   12.5249    1.0284    0.0000 C   0  0  0  0  0  0  0  0  0  0  0  0
   11.8020    1.4346    0.0000 C   0  0  0  0  0  0  0  0  0  0  0  0
   11.0962    1.0121    0.0000 C   0  0  0  0  0  0  0  0  0  0  0  0
   11.1075   -1.4528    0.0000 C   0  0  0  0  0  0  0  0  0  0  0  0
   10.3863   -1.8703    0.0000 C   0  0  0  0  0  0  0  0  0  0  0  0
   11.8298   -2.6964    0.0000 C   0  0  0  0  0  0  0  0  0  0  0  0
   11.8279   -1.8648    0.0000 C   0  0  0  0  0  0  0  0  0  0  0  0
   11.1077   -3.1176    0.0000 C   0  0  0  0  0  0  0  0  0  0  0  0
   10.3906   -2.7005    0.0000 C   0  0  0  0  0  0  0  0  0  0  0  0
    9.6705   -3.1171    0.0000 O   0  0  0  0  0  0  0  0  0  0  0  0
    9.6704   -3.9448    0.0000 C   0  0  0  0  0  0  0  0  0  0  0  0
   10.3875   -4.3619    0.0000 C   0  0  0  0  0  0  0  0  0  0  0  0
   11.1130   -3.9470    0.0000 C   0  0  0  0  0  0  0  0  0  0  0  0
    8.9595   -4.3568    0.0000 C   0  0  0  0  0  0  0  0  0  0  0  0
    8.2461   -3.9423    0.0000 C   0  0  0  0  0  0  0  0  0  0  0  0
    7.5357   -4.3488    0.0000 C   0  0  0  0  0  0  0  0  0  0  0  0
    7.5325   -5.1738    0.0000 C   0  0  0  0  0  0  0  0  0  0  0  0
    8.2489   -5.5855    0.0000 C   0  0  0  0  0  0  0  0  0  0  0  0
    8.9591   -5.1753    0.0000 C   0  0  0  0  0  0  0  0  0  0  0  0
    6.8180   -5.5829    0.0000 O   0  0  0  0  0  0  0  0  0  0  0  0
   10.3898   -5.1856    0.0000 O   0  0  0  0  0  0  0  0  0  0  0  0
   12.5469   -3.1055    0.0000 O   0  0  0  0  0  0  0  0  0  0  0  0
   13.2318    1.4504    0.0000 O   0  0  0  0  0  0  0  0  0  0  0  0
    8.2515   -2.2827    0.0000 O   0  0  0  0  0  0  0  0  0  0  0  0
    6.8288    0.1880    0.0000 O   0  0  0  0  0  0  0  0  0  0  0  0
   11.5090   -1.0516    0.0000 O   0  0  0  0  0  0  0  0  0  0  0  0
    9.6684   -2.2850    0.0000 H   0  0  0  0  0  0  0  0  0  0  0  0
   11.7908    2.2632    0.0000 O   0  0  0  0  0  0  0  0  0  0  0  0
  1  2  2  0  0  0  0 
  2  3  1  0  0  0  0 
  3  6  2  0  0  0  0 
  5  4  2  0  0  0  0 
  4  1  1  0  0  0  0 
  5  6  1  0  0  0  0 
  5 10  1  0  0  0  0 
  6  7  1  0  0  0  0 
  7  8  1  0  0  0  0 
  8  9  1  0  0  0  0 
  9 10  1  0  0  0  0 
  9 11  1  0  0  0  0 
  7 19  1  0  0  0  0 
 11 18  1  0  0  0  0 
  9 12  1  6  0  0  0 
 12 13  2  0  0  0  0 
 13 14  1  0  0  0  0 
 14 15  2  0  0  0  0 
 15 16  1  0  0  0  0 
 16 17  2  0  0  0  0 
 17 12  1  0  0  0  0 
 18 19  2  0  0  0  0 
 19 23  1  0  0  0  0 
 22 20  1  0  0  0  0 
 20 21  2  0  0  0  0 
 21 18  1  0  0  0  0 
 22 23  2  0  0  0  0 
 22 27  1  0  0  0  0 
 23 24  1  0  0  0  0 
 24 25  1  0  0  0  0 
 25 26  1  0  0  0  0 
 26 27  1  0  0  0  0 
 28 29  2  0  0  0  0 
 29 30  1  0  0  0  0 
 30 31  2  0  0  0  0 
 31 32  1  0  0  0  0 
 32 33  2  0  0  0  0 
 33 28  1  0  0  0  0 
 25 28  1  1  0  0  0 
 31 34  1  0  0  0  0 
 26 35  1  6  0  0  0 
 20 36  1  0  0  0  0 
 15 37  1  0  0  0  0 
  3 38  1  0  0  0  0 
  1 39  1  0  0  0  0 
  8 40  1  6  0  0  0 
  7 41  1  6  0  0  0 
 16 42  1  0  0  0  0 
M  END