
          11280714562D 1   1.00000     0.00000     0

 23 23  0     0  0            999 V2000
    3.5542   -2.7667    0.0000 C   0  0  0  0  0  0           0  0  0
    3.0375   -3.0667    0.0000 C   0  0  0  0  0  0           0  0  0
    4.0750   -3.0667    0.0000 C   0  0  0  0  0  0           0  0  0
    2.5167   -2.7667    0.0000 C   0  0  0  0  0  0           0  0  0
    7.2042   -3.0667    0.0000 C   0  0  0  0  0  0           0  0  0
    7.7167   -2.7667    0.0000 C   0  0  0  0  0  0           0  0  0
    4.5917   -2.7667    0.0000 C   0  0  0  0  0  0           0  0  0
    5.6417   -2.7667    0.0000 C   0  0  0  0  0  0           0  0  0
    6.6792   -2.7667    0.0000 C   0  0  0  0  0  0           0  0  0
    5.1167   -3.0667    0.0000 C   0  0  0  0  0  0           0  0  0
    6.1625   -3.0667    0.0000 C   0  0  0  0  0  0           0  0  0
    7.7167   -2.1667    0.0000 O   0  0  0  0  0  0           0  0  0
    3.0375   -3.6667    0.0000 C   0  0  3  0  0  0           0  0  0
    3.5542   -2.1667    0.0000 C   0  0  0  0  0  0           0  0  0
    8.2417   -3.0667    0.0000 O   0  0  0  0  0  0           0  0  0
    2.5167   -2.1667    0.0000 C   0  0  0  0  0  0           0  0  0
    1.9917   -3.0667    0.0000 C   0  0  0  0  0  0           0  0  0
    3.0375   -1.8667    0.0000 C   0  0  0  0  0  0           0  0  0
    4.5917   -2.1667    0.0000 C   0  0  0  0  0  0           0  0  0
    6.6792   -2.1667    0.0000 C   0  0  0  0  0  0           0  0  0
    3.5542   -3.9750    0.0000 C   0  0  0  0  0  0           0  0  0
    2.5167   -3.9750    0.0000 C   0  0  0  0  0  0           0  0  0
    1.9917   -3.6667    0.0000 C   0  0  0  0  0  0           0  0  0
  2  1  1  0     0  0
  3  1  2  0     0  0
  4  2  2  0     0  0
  5  9  2  0     0  0
  6  5  1  0     0  0
  7  3  1  0     0  0
  8 10  1  0     0  0
  9 11  1  0     0  0
 10  7  2  0     0  0
 11  8  2  0     0  0
 12  6  2  0     0  0
 13  2  1  0     0  0
 14  1  1  0     0  0
 15  6  1  0     0  0
 16 18  1  0     0  0
 17  4  1  0     0  0
 18 14  1  0     0  0
 19  7  1  0     0  0
 20  9  1  0     0  0
 21 13  1  0     0  0
 22 13  1  0     0  0
 23 17  1  0     0  0
 16  4  1  0     0  0
M  END