
  Mrv0541 04051115152D          

 31 35  0  0  0  0            999 V2000
   -3.4152   -3.1214    0.0000 C   0  0  0  0  0  0  0  0  0  0  0  0
   -3.1603   -2.3368    0.0000 N   0  0  0  0  0  0  0  0  0  0  0  0
   -3.7123   -1.7237    0.0000 C   0  0  0  0  0  0  0  0  0  0  0  0
   -2.3533   -2.1653    0.0000 C   0  0  0  0  0  0  0  0  0  0  0  0
   -2.0984   -1.3807    0.0000 C   0  0  0  0  0  0  0  0  0  0  0  0
   -1.2914   -1.2092    0.0000 C   0  0  0  0  0  0  0  0  0  0  0  0
   -1.0365   -0.4245    0.0000 N   0  0  0  0  0  0  0  0  0  0  0  0
   -0.2518   -0.1696    0.0000 C   0  0  0  0  0  0  0  0  0  0  0  0
   -1.5214    0.2429    0.0000 C   0  0  0  0  0  0  0  0  0  0  0  0
   -2.3419    0.3291    0.0000 C   0  0  0  0  0  0  0  0  0  0  0  0
   -2.6774    1.0828    0.0000 C   0  0  0  0  0  0  0  0  0  0  0  0
   -2.1925    1.7503    0.0000 C   0  0  0  0  0  0  0  0  0  0  0  0
   -1.3720    1.6640    0.0000 C   0  0  0  0  0  0  0  0  0  0  0  0
   -1.0365    0.9103    0.0000 C   0  0  0  0  0  0  0  0  0  0  0  0
   -0.2518    0.6554    0.0000 C   0  0  0  0  0  0  0  0  0  0  0  0
    0.4156    1.1403    0.0000 C   0  0  0  0  0  0  0  0  0  0  0  0
    0.4156    1.9653    0.0000 C   0  0  0  0  0  0  0  0  0  0  0  0
   -0.2518    2.4503    0.0000 O   0  0  0  0  0  0  0  0  0  0  0  0
    1.2002    2.2203    0.0000 N   0  0  0  0  0  0  0  0  0  0  0  0
    1.6851    1.5528    0.0000 C   0  0  0  0  0  0  0  0  0  0  0  0
    2.5101    1.5528    0.0000 O   0  0  0  0  0  0  0  0  0  0  0  0
    1.2002    0.8854    0.0000 C   0  0  0  0  0  0  0  0  0  0  0  0
    1.4552    0.1008    0.0000 C   0  0  0  0  0  0  0  0  0  0  0  0
    2.2398   -0.1542    0.0000 C   0  0  0  0  0  0  0  0  0  0  0  0
    2.9543    0.2583    0.0000 C   0  0  0  0  0  0  0  0  0  0  0  0
    3.6687   -0.1542    0.0000 C   0  0  0  0  0  0  0  0  0  0  0  0
    3.6687   -0.9792    0.0000 C   0  0  0  0  0  0  0  0  0  0  0  0
    2.9543   -1.3917    0.0000 C   0  0  0  0  0  0  0  0  0  0  0  0
    2.2398   -0.9792    0.0000 C   0  0  0  0  0  0  0  0  0  0  0  0
    1.4552   -1.2341    0.0000 N   0  0  0  0  0  0  0  0  0  0  0  0
    0.9702   -0.5667    0.0000 C   0  0  0  0  0  0  0  0  0  0  0  0
  1  2  1  0  0  0  0
  3  2  1  0  0  0  0
  4  2  1  0  0  0  0
  5  4  1  0  0  0  0
  6  5  1  0  0  0  0
  6  7  1  0  0  0  0
  8  7  1  0  0  0  0
  9  7  1  0  0  0  0
 15  8  2  0  0  0  0
  9 10  1  0  0  0  0
 14  9  2  0  0  0  0
 11 10  2  0  0  0  0
 11 12  1  0  0  0  0
 12 13  2  0  0  0  0
 13 14  1  0  0  0  0
 14 15  1  0  0  0  0
 15 16  1  0  0  0  0
 16 17  1  0  0  0  0
 16 22  2  0  0  0  0
 17 18  2  0  0  0  0
 17 19  1  0  0  0  0
 20 19  1  0  0  0  0
 20 21  2  0  0  0  0
 22 20  1  0  0  0  0
 22 23  1  0  0  0  0
 23 24  1  0  0  0  0
 23 31  2  0  0  0  0
 24 25  1  0  0  0  0
 24 29  2  0  0  0  0
 25 26  2  0  0  0  0
 26 27  1  0  0  0  0
 27 28  2  0  0  0  0
 29 28  1  0  0  0  0
 29 30  1  0  0  0  0
 31 30  1  0  0  0  0
M  END