
  SciTegic02271514372D

 25 26  0  0  0  0            999 V2000
    1.3954   -5.4527    0.0000 C   0  0
    2.1099   -5.8652    0.0000 C   0  0
    2.8244   -5.4527    0.0000 C   0  0
    3.5388   -5.8652    0.0000 C   0  0
    3.5388   -6.6902    0.0000 C   0  0
    2.8244   -7.1027    0.0000 C   0  0
    2.1099   -6.6902    0.0000 C   0  0
    1.3954   -4.6277    0.0000 O   0  0
    0.6809   -5.8652    0.0000 O   0  0
    1.3954   -7.1027    0.0000 O   0  0
    4.2533   -7.1027    0.0000 O   0  0
    2.8244   -4.6277    0.0000 C   0  0
    3.5388   -4.2152    0.0000 C   0  0
    3.5388   -3.3902    0.0000 C   0  0
    4.2533   -2.9777    0.0000 O   0  0
    2.8244   -2.9777    0.0000 N   0  0
    2.8244   -2.1527    0.0000 C   0  0
    2.1099   -1.7402    0.0000 C   0  0
    2.1099   -0.9152    0.0000 C   0  0
    2.8244   -0.5027    0.0000 C   0  0
    3.5388   -0.9152    0.0000 C   0  0
    3.5388   -1.7402    0.0000 C   0  0
    1.3954   -0.5027    0.0000 Cl  0  0
    4.2533   -5.4527    0.0000 Cl  0  0
    0.6809   -6.6902    0.0000 C   0  0
  1  2  1  0
  2  3  1  0
  3  4  2  0
  4  5  1  0
  5  6  2  0
  6  7  1  0
  2  7  2  0
  1  8  2  0
  1  9  1  0
  7 10  1  0
  5 11  1  0
 12 13  1  0
 13 14  1  0
 14 15  2  0
 17 18  1  0
 18 19  2  0
 19 20  1  0
 20 21  2  0
 21 22  1  0
 17 22  2  0
 19 23  1  0
 16 17  1  0
 14 16  1  0
  3 12  1  0
  4 24  1  0
  9 25  1  0
M  END