
  SciTegic11201309402D

 67 68  0  0  1  0            999 V2000
   -0.9958   -1.0125    0.0000 C   0  0
   -1.4875   -1.6875    0.0000 N   0  0
   -1.4875   -0.3417    0.0000 C   0  0
   -0.1708   -1.0125    0.0000 C   0  0
   -2.2750   -1.4292    0.0000 C   0  0
   -2.2750   -0.6000    0.0000 C   0  0
    3.5417   -3.1542    0.0000 C   0  0
    2.3042   -2.4417    0.0000 N   0  0
   -3.7458   -7.5792    0.0000 C   0  0
    1.4792   -2.4417    0.0000 C   0  0
    0.2417   -1.7292    0.0000 N   0  0
    3.9542   -3.8667    0.0000 N   0  0
    2.7167   -3.1542    0.0000 C   0  0  1  0  0  0
   -3.0333   -7.1750    0.0000 C   0  0
    1.0667   -1.7292    0.0000 C   0  0  1  0  0  0
   -7.8542   -1.4542    0.0000 C   0  0
    2.7625    3.4833    0.0000 C   0  0
    4.7792   -3.8667    0.0000 C   0  0  2  0  0  0
    5.1917   -4.5792    0.0000 C   0  0
   -8.4042   -0.8292    0.0000 N   0  0
    3.3125    2.8708    0.0000 N   0  0
    0.2417   -0.3000    0.0000 O   0  0
   -2.9958   -1.8417    0.0000 C   0  0
    3.9542   -2.4417    0.0000 O   0  0
    1.0667   -3.1542    0.0000 O   0  0
    1.4792   -1.0125    0.0000 C   0  0
   -3.0333   -6.3417    0.0000 O   0  0
    4.7792   -5.3000    0.0000 O   0  0
    5.1917   -3.1542    0.0000 C   0  0
   -4.4708   -8.0000    0.0000 F   0  0
   -3.3333   -8.3042    0.0000 F   0  0
   -4.1625   -6.8625    0.0000 F   0  0
    1.9542    3.3125    0.0000 N   0  0
   -7.0542   -1.2917    0.0000 N   0  0
    3.0167    4.2667    0.0000 N   0  0
   -8.1250   -2.2375    0.0000 N   0  0
    2.3042   -3.8667    0.0000 C   0  0  2  0  0  0
    2.2750   -0.7917    0.0000 C   0  0
   -2.3208   -7.5875    0.0000 O   0  0
    6.0167   -4.5792    0.0000 O   0  0
   -1.2333    0.4458    0.0000 C   0  0
    3.8625   -0.3542    0.0000 C   0  0
   -2.9958   -0.1875    0.0000 C   0  0
    2.8542   -1.3750    0.0000 C   0  0
    2.4792    0.0000    0.0000 C   0  0
   -2.9958   -2.6667    0.0000 O   0  0
    3.2667    0.2208    0.0000 C   0  0
    3.6542   -1.1542    0.0000 C   0  0
    4.6542   -0.1375    0.0000 O   0  0
   -3.7083   -0.6000    0.0000 C   0  0
    6.0167   -3.1542    0.0000 C   0  0
   -3.7083   -1.4292    0.0000 C   0  0
   -6.5042   -1.9125    0.0000 C   0  0
    1.7000    2.5333    0.0000 C   0  0
    1.4792   -3.8667    0.0000 C   0  0
    2.7167   -4.5792    0.0000 C   0  0
   -3.8000   -2.8292    0.0000 C   0  0
   -0.4250    0.6208    0.0000 C   0  0
    0.8917    2.3583    0.0000 C   0  0
   -5.7083   -1.7500    0.0000 C   0  0
   -4.3458   -2.2042    0.0000 C   0  0
    6.4292   -3.8667    0.0000 C   0  0
    6.4292   -2.4417    0.0000 C   0  0
    0.6375    1.5708    0.0000 C   0  0
   -5.1583   -2.3667    0.0000 C   0  0
   -0.1708    1.4000    0.0000 C   0  0
    1.0667   -4.5792    0.0000 C   0  0
  2  1  1  0
  3  1  2  0
  4  1  1  0
  5  2  1  0
  6  3  1  0
  7 13  1  0
  8 10  1  0
 10 15  1  0
 11  4  1  0
 12  7  1  0
 13  8  1  6
 14  9  1  0
 15 11  1  1
 16 34  2  0
 17 33  2  0
 18 12  1  1
 19 18  1  0
 20 16  1  0
 21 17  1  0
 22  4  2  0
 23  5  2  0
 24  7  2  0
 25 10  2  0
 15 26  1  0
 27 14  2  0
 28 19  2  0
 18 29  1  0
 30  9  1  0
 31  9  1  0
 32  9  1  0
 33 54  1  0
 34 53  1  0
 35 17  1  0
 36 16  1  0
 13 37  1  0
 38 26  1  0
 39 14  1  0
 40 19  1  0
 41  3  1  0
 42 48  2  0
 43  6  2  0
 44 38  2  0
 45 38  1  0
 46 23  1  0
 47 45  2  0
 48 44  1  0
 49 42  1  0
 50 43  1  0
 51 29  1  0
 52 23  1  0
 53 60  1  0
 54 59  1  0
 55 37  1  0
 37 56  1  1
 57 46  1  0
 58 41  1  0
 59 64  1  0
 60 65  1  0
 61 57  1  0
 62 51  1  0
 63 51  1  0
 64 66  1  0
 65 61  1  0
 66 58  1  0
 67 55  1  0
  5  6  1  0
 52 50  2  0
 47 42  1  0
M  END