
  SciTegic04091414352D

 28 31  0  0  0  0            999 V2000
   23.8223   -8.5475    0.0000 C   0  0  1  0  0  0
   24.6436   -8.5475    0.0000 C   0  0  2  0  0  0
   24.8980   -7.7667    0.0000 C   0  0  1  0  0  0
   24.2351   -7.2804    0.0000 O   0  0
   23.5722   -7.7667    0.0000 C   0  0  2  0  0  0
   25.6797   -7.5152    0.0000 N   0  0
   22.7908   -7.5145    0.0000 C   0  0
   26.2931   -8.0620    0.0000 C   0  0
   27.0720   -7.8135    0.0000 C   0  0
   27.2472   -7.0109    0.0000 C   0  0
   26.6371   -6.4570    0.0000 N   0  0
   25.8560   -6.7099    0.0000 C   0  0
   25.2468   -6.1565    0.0000 O   0  0
   28.0298   -6.7624    0.0000 N   0  0
   25.1273   -9.2133    0.0000 O   0  0
   23.3370   -9.2121    0.0000 O   0  0
   22.1846   -8.0625    0.0000 N   0  0
   21.4069   -7.8116    0.0000 C   0  0
   20.8007   -8.3596    0.0000 C   0  0
   21.2354   -7.0126    0.0000 O   0  0
   20.0245   -8.1068    0.0000 C   0  0
   19.4186   -8.6541    0.0000 C   0  0
   19.5899   -9.4540    0.0000 N   0  0
   20.9749   -9.1548    0.0000 C   0  0
   20.3732   -9.7040    0.0000 C   0  0
   20.7094  -10.4460    0.0000 N   0  0
   21.5191  -10.3554    0.0000 C   0  0
   21.6831   -9.5575    0.0000 N   0  0
  1  2  1  0
  2  3  1  0
  3  4  1  0
  4  5  1  0
  5  1  1  0
  3  6  1  1
  5  7  1  1
  6  8  1  0
  6 12  1  0
  8  9  2  0
  9 10  1  0
 10 11  2  0
 11 12  1  0
 12 13  2  0
 10 14  1  0
  2 15  1  6
  1 16  1  6
  7 17  1  0
 17 18  1  0
 18 19  1  0
 18 20  2  0
 19 21  2  0
 21 22  1  0
 22 23  2  0
 23 25  1  0
 24 19  1  0
 24 25  2  0
 25 26  1  0
 26 27  2  0
 27 28  1  0
 28 24  1  0
M  END