
          11280715352D 1   1.00000     0.00000     0

 32 35  0     0  0            999 V2000
   -0.6458    1.6333    0.0000 S   0  0  3  0  0  0           0  0  0
   -0.6458    2.4583    0.0000 N   0  0  0  0  0  0           0  0  0
   -2.0833    4.1042    0.0000 N   0  0  0  0  0  0           0  0  0
   -1.3625    3.6958    0.0000 N   0  0  3  0  0  0           0  0  0
   -1.3625    2.8708    0.0000 C   0  0  0  0  0  0           0  0  0
   -2.0833    4.9292    0.0000 C   0  0  0  0  0  0           0  0  0
   -0.6583    4.9375    0.0000 C   0  0  3  0  0  0           0  0  0
   -0.6583    4.1042    0.0000 C   0  0  0  0  0  0           0  0  0
   -0.6458    0.8083    0.0000 C   0  0  0  0  0  0           0  0  0
    0.1542    1.4208    0.0000 O   0  0  0  0  0  0           0  0  0
   -1.3583    1.2250    0.0000 O   0  0  0  0  0  0           0  0  0
   -2.6625    5.5167    0.0000 C   0  0  0  0  0  0           0  0  0
   -0.0750    5.5167    0.0000 C   0  0  0  0  0  0           0  0  0
   -2.0750    2.4583    0.0000 N   0  0  0  0  0  0           0  0  0
    0.0542    0.4000    0.0000 C   0  0  0  0  0  0           0  0  0
   -1.3708    0.4083    0.0000 C   0  0  0  0  0  0           0  0  0
   -3.4583    5.3042    0.0000 C   0  0  0  0  0  0           0  0  0
   -2.4458    6.3167    0.0000 C   0  0  0  0  0  0           0  0  0
   -0.6583   -0.8292    0.0000 C   0  0  0  0  0  0           0  0  0
   -3.8333    6.6792    0.0000 C   0  0  0  0  0  0           0  0  0
   -1.3708   -0.4167    0.0000 C   0  0  0  0  0  0           0  0  0
   -4.0458    5.8792    0.0000 C   0  0  0  0  0  0           0  0  0
    0.0542   -0.4167    0.0000 C   0  0  0  0  0  0           0  0  0
   -3.0333    6.8917    0.0000 C   0  0  0  0  0  0           0  0  0
   -0.6708   -1.6625    0.0000 Cl  0  0  0  0  0  0           0  0  0
   -4.4125    7.2667    0.0000 F   0  0  0  0  0  0           0  0  0
    0.7167    5.3042    0.0000 C   0  0  0  0  0  0           0  0  0
   -0.2958    6.3125    0.0000 C   0  0  0  0  0  0           0  0  0
   -2.0708    1.6333    0.0000 C   0  0  0  0  0  0           0  0  0
    1.3042    5.8875    0.0000 C   0  0  0  0  0  0           0  0  0
    0.2875    6.8917    0.0000 C   0  0  0  0  0  0           0  0  0
    1.0917    6.6792    0.0000 C   0  0  0  0  0  0           0  0  0
  2  1  1  0     0  0
  3  4  1  0     0  0
  4  5  1  0     0  0
  5  2  1  0     0  0
  6  3  2  0     0  0
  7  8  1  0     0  0
  8  4  1  0     0  0
  9  1  1  0     0  0
 10  1  2  0     0  0
 11  1  2  0     0  0
 12  6  1  0     0  0
 13  7  1  0     0  0
 14  5  2  0     0  0
 15  9  1  0     0  0
 16  9  2  0     0  0
 17 12  1  0     0  0
 18 12  2  0     0  0
 19 21  2  0     0  0
 20 24  2  0     0  0
 21 16  1  0     0  0
 22 17  2  0     0  0
 23 15  2  0     0  0
 24 18  1  0     0  0
 25 19  1  0     0  0
 26 20  1  0     0  0
 27 13  2  0     0  0
 28 13  1  0     0  0
 29 14  1  0     0  0
 30 27  1  0     0  0
 31 28  2  0     0  0
 32 31  1  0     0  0
 23 19  1  0     0  0
  6  7  1  0     0  0
 20 22  1  0     0  0
 32 30  2  0     0  0
M  END