
          11280715122D 1   1.00000     0.00000     0

 33 36  0     0  0            999 V2000
    4.8250   -3.5375    0.0000 C   0  0  0  0  0  0           0  0  0
    4.8250   -4.3667    0.0000 C   0  0  0  0  0  0           0  0  0
    7.8292   -8.6917    0.0000 C   0  0  0  0  0  0           0  0  0
    7.3042   -9.9250    0.0000 N   0  0  0  0  0  0           0  0  0
    8.0125   -9.5042    0.0000 N   0  0  0  0  0  0           0  0  0
    6.6875   -9.3917    0.0000 N   0  0  0  0  0  0           0  0  0
    4.1042   -4.7792    0.0000 N   0  0  0  0  0  0           0  0  0
    7.0167   -8.6167    0.0000 N   0  0  0  0  0  0           0  0  0
    8.3792   -8.0792    0.0000 C   0  0  0  0  0  0           0  0  0
    5.5375   -4.7792    0.0000 N   0  0  3  0  0  0           0  0  0
    5.5375   -3.1167    0.0000 C   0  0  0  0  0  0           0  0  0
    3.3917   -4.3667    0.0000 N   0  0  0  0  0  0           0  0  0
    8.3792   -7.2500    0.0000 C   0  0  0  0  0  0           0  0  0
    4.1042   -3.1250    0.0000 C   0  0  0  0  0  0           0  0  0
    3.3917   -3.5375    0.0000 C   0  0  0  0  0  0           0  0  0
    7.6750   -6.8417    0.0000 C   0  0  0  0  0  0           0  0  0
    5.5292   -5.6042    0.0000 C   0  0  0  0  0  0           0  0  0
    5.5292   -2.2917    0.0000 O   0  0  0  0  0  0           0  0  0
    7.6667   -6.0125    0.0000 C   0  0  0  0  0  0           0  0  0
    6.9542   -7.2542    0.0000 C   0  0  0  0  0  0           0  0  0
    6.2500   -6.0167    0.0000 C   0  0  0  0  0  0           0  0  0
    6.2542   -3.5292    0.0000 O   0  0  0  0  0  0           0  0  0
    2.6792   -3.1292    0.0000 Cl  0  0  0  0  0  0           0  0  0
    6.2417   -6.8417    0.0000 C   0  0  0  0  0  0           0  0  0
    6.9542   -5.6042    0.0000 C   0  0  0  0  0  0           0  0  0
    6.2417   -4.3667    0.0000 C   0  0  0  0  0  0           0  0  0
    9.0917   -8.4917    0.0000 C   0  0  0  0  0  0           0  0  0
    9.0917   -6.8417    0.0000 C   0  0  0  0  0  0           0  0  0
    6.9542   -4.7792    0.0000 C   0  0  0  0  0  0           0  0  0
    7.6625   -4.3667    0.0000 C   0  0  0  0  0  0           0  0  0
    9.8042   -7.2500    0.0000 C   0  0  0  0  0  0           0  0  0
    9.8125   -8.0792    0.0000 C   0  0  0  0  0  0           0  0  0
    8.3750   -4.7792    0.0000 C   0  0  0  0  0  0           0  0  0
  2  1  1  0     0  0
  3  9  1  0     0  0
  4  5  2  0     0  0
  5  3  1  0     0  0
  6  8  1  0     0  0
  7  2  2  0     0  0
  8  3  2  0     0  0
  9 13  2  0     0  0
 10  2  1  0     0  0
 11  1  1  0     0  0
 12 15  2  0     0  0
 13 16  1  0     0  0
 14  1  2  0     0  0
 15 14  1  0     0  0
 16 19  2  0     0  0
 17 10  1  0     0  0
 18 11  2  0     0  0
 19 25  1  0     0  0
 20 24  2  0     0  0
 21 17  1  0     0  0
 22 11  1  0     0  0
 23 15  1  0     0  0
 24 21  1  0     0  0
 25 21  2  0     0  0
 26 10  1  0     0  0
 27  9  1  0     0  0
 28 13  1  0     0  0
 29 26  1  0     0  0
 30 29  1  0     0  0
 31 28  2  0     0  0
 32 31  1  0     0  0
 33 30  1  0     0  0
 12  7  1  0     0  0
 20 16  1  0     0  0
 27 32  2  0     0  0
  6  4  1  0     0  0
M  END