
  SciTegic12231509382D

 35 38  0  0  0  0            999 V2000
    5.6208   -8.8376    0.0000 C   0  0
    6.3353   -8.4251    0.0000 C   0  0
    7.0498   -8.8376    0.0000 C   0  0
    7.7643   -8.4251    0.0000 N   0  0
    8.4777   -8.8414    0.0000 C   0  0
    9.1899   -8.4324    0.0000 C   0  0
    9.1943   -7.6070    0.0000 N   0  0
    8.4799   -7.1923    0.0000 C   0  0
    7.7613   -7.6030    0.0000 C   0  0
    4.9064   -8.4251    0.0000 C   0  0
    4.1919   -8.8376    0.0000 C   0  0
    3.4774   -8.4251    0.0000 C   0  0
    2.7630   -8.8376    0.0000 N   0  0
    3.4774   -7.6001    0.0000 O   0  0
    9.9103   -7.1973    0.0000 C   0  0
    2.7630   -9.6625    0.0000 C   0  0
    2.0485  -10.0750    0.0000 C   0  0
    1.3358   -9.6574    0.0000 C   0  0
    0.6218  -10.0692    0.0000 C   0  0
    0.6214  -10.8950    0.0000 N   0  0
    1.3409  -11.3074    0.0000 C   0  0
    2.0519  -10.8932    0.0000 C   0  0
   10.6241   -7.6185    0.0000 C   0  0
   11.3397   -7.2093    0.0000 C   0  0
   11.3432   -6.3835    0.0000 C   0  0
   10.6253   -5.9684    0.0000 C   0  0
    9.9128   -6.3799    0.0000 C   0  0
   10.6186   -8.4435    0.0000 C   0  0
    9.8996   -8.8468    0.0000 C   0  0
    9.8936   -9.6710    0.0000 C   0  0
   10.6058  -10.0892    0.0000 C   0  0
   11.3255   -9.6771    0.0000 C   0  0
   11.3279   -8.8543    0.0000 C   0  0
   10.6013  -10.9142    0.0000 O   0  0
    9.8845  -11.3227    0.0000 C   0  0
  1  2  1  0
  2  3  1  0
  3  4  1  0
  4  5  1  0
  4  9  1  0
  5  6  1  0
  6  7  1  0
  7  8  1  0
  8  9  1  0
  1 10  1  0
 10 11  1  0
 11 12  1  0
 12 13  1  0
 12 14  2  0
  7 15  1  0
 13 16  1  0
 16 17  1  0
 17 18  2  0
 18 19  1  0
 19 20  2  0
 20 21  1  0
 21 22  2  0
 22 17  1  0
 15 23  2  0
 23 24  1  0
 24 25  2  0
 25 26  1  0
 26 27  2  0
 27 15  1  0
 23 28  1  0
 28 29  2  0
 29 30  1  0
 30 31  2  0
 31 32  1  0
 32 33  2  0
 33 28  1  0
 31 34  1  0
 34 35  1  0
M  END