
  SciTegic05071317052D

 31 30  0  0  0  0            999 V2000
   26.7247   -4.2749    0.0000 C   0  0
   26.7247   -5.0999    0.0000 C   0  0
   27.4367   -5.5083    0.0000 N   0  0
   28.1487   -5.0999    0.0000 C   0  0
   28.1487   -4.2749    0.0000 C   0  0
   27.4367   -3.8583    0.0000 N   0  0
   27.4371   -3.0331    0.0000 C   0  0
   28.1045   -2.5481    0.0000 N   0  0
   27.8497   -1.7630    0.0000 C   0  0
   27.0246   -1.7635    0.0000 C   0  0
   26.7698   -2.5481    0.0000 S   0  0
   28.2495   -1.0413    0.0000 C   0  0
   29.0743   -1.0267    0.0000 C   0  0
   29.4741   -0.3050    0.0000 N   0  0
   30.2990   -0.2903    0.0000 C   0  0
   29.0489    0.4063    0.0000 C   0  0
   27.4367   -6.3333    0.0000 C   0  0
   26.7222   -6.7458    0.0000 C   0  0
   26.7222   -7.5708    0.0000 C   0  0
   29.4487    1.1262    0.0000 C   0  0
   29.0236    1.8359    0.0000 C   0  0
   29.4234    2.5559    0.0000 C   0  0
   28.9983    3.2655    0.0000 C   0  0
   29.4019    3.9815    0.0000 C   0  0
   28.9775    4.6917    0.0000 C   0  0
   28.1518    4.6725    0.0000 C   0  0
   27.7522    3.9492    0.0000 C   0  0
   28.1789    3.2445    0.0000 C   0  0
   24.7975   -4.1791    0.0000 Br  0  0
   24.8679   -3.1527    0.0000 Br  0  0
   24.9562   -2.3571    0.0000 Br  0  0
  1  2  1  0
  1  6  1  0
  2  3  1  0
  3  4  1  0
  4  5  1  0
  5  6  1  0
  7  8  2  0
  8  9  1  0
  9 10  2  0
 10 11  1  0
 11  7  1  0
  6  7  1  0
  9 12  1  0
 12 13  1  0
 13 14  1  0
 14 15  1  0
 14 16  1  0
  3 17  1  0
 17 18  1  0
 18 19  1  0
 16 20  1  0
 20 21  1  0
 21 22  1  0
 22 23  1  0
 23 24  2  0
 24 25  1  0
 25 26  2  0
 26 27  1  0
 27 28  2  0
 28 23  1  0
M  END