
          11280715042D 1   1.00000     0.00000     0

 47 50  0     0  0            999 V2000
   -2.5083    3.3708    0.0000 C   0  0  0  0  0  0           0  0  0
   -2.5083    2.5458    0.0000 N   0  0  3  0  0  0           0  0  0
    4.6292    0.8583    0.0000 C   0  0  0  0  0  0           0  0  0
    2.4875    1.2833    0.0000 C   0  0  0  0  0  0           0  0  0
    5.3417    1.2708    0.0000 C   0  0  0  0  0  0           0  0  0
   -2.5083    5.0167    0.0000 C   0  0  0  0  0  0           0  0  0
    3.9167    1.2708    0.0000 N   0  0  3  0  0  0           0  0  0
   -3.2208    3.7833    0.0000 C   0  0  3  0  0  0           0  0  0
    1.7667    0.0458    0.0000 C   0  0  0  0  0  0           0  0  0
    3.2000    0.8625    0.0000 C   0  0  0  0  0  0           0  0  0
    1.7667    0.8708    0.0000 C   0  0  3  0  0  0           0  0  0
   -3.2208    4.6042    0.0000 C   0  0  0  0  0  0           0  0  0
   -1.7958    2.1333    0.0000 C   0  0  3  0  0  0           0  0  0
   -0.3708    1.2958    0.0000 N   0  0  3  0  0  0           0  0  0
    2.4750   -0.3625    0.0000 C   0  0  0  0  0  0           0  0  0
    2.4750   -1.1875    0.0000 C   0  0  0  0  0  0           0  0  0
    2.4917    2.1083    0.0000 N   0  0  0  0  0  0           0  0  0
    1.0542    1.2875    0.0000 C   0  0  0  0  0  0           0  0  0
   -1.7958    4.6167    0.0000 N   0  0  3  0  0  0           0  0  0
    5.3417    2.0875    0.0000 C   0  0  0  0  0  0           0  0  0
    6.0542    0.8458    0.0000 C   0  0  0  0  0  0           0  0  0
   -1.7958    3.7833    0.0000 O   0  0  0  0  0  0           0  0  0
   -1.0833    2.5375    0.0000 C   0  0  0  0  0  0           0  0  0
   -1.7958    1.3000    0.0000 C   0  0  0  0  0  0           0  0  0
    1.7542   -1.6000    0.0000 C   0  0  0  0  0  0           0  0  0
    4.6250    0.0333    0.0000 O   0  0  0  0  0  0           0  0  0
    6.0542    2.4958    0.0000 C   0  0  0  0  0  0           0  0  0
    6.7667    1.2583    0.0000 C   0  0  0  0  0  0           0  0  0
   -2.5083    5.8417    0.0000 O   0  0  0  0  0  0           0  0  0
    6.7750    2.0833    0.0000 C   0  0  0  0  0  0           0  0  0
    1.0500   -0.3542    0.0000 C   0  0  0  0  0  0           0  0  0
    0.3417    0.8833    0.0000 C   0  0  0  0  0  0           0  0  0
    1.0417   -1.1792    0.0000 C   0  0  0  0  0  0           0  0  0
   -0.3708    2.1208    0.0000 C   0  0  0  0  0  0           0  0  0
   -1.0875    0.8875    0.0000 C   0  0  0  0  0  0           0  0  0
   -3.2208    2.1333    0.0000 C   0  0  0  0  0  0           0  0  0
    3.1875   -1.6000    0.0000 Cl  0  0  0  0  0  0           0  0  0
    1.7542   -2.4250    0.0000 Cl  0  0  0  0  0  0           0  0  0
    6.0542    3.3208    0.0000 Cl  0  0  0  0  0  0           0  0  0
    7.4792    0.8375    0.0000 Cl  0  0  0  0  0  0           0  0  0
    3.2042    2.5208    0.0000 O   0  0  0  0  0  0           0  0  0
    3.9167    2.0958    0.0000 C   0  0  0  0  0  0           0  0  0
   -3.9333    3.3708    0.0000 C   0  0  0  0  0  0           0  0  0
   -3.9333    2.5458    0.0000 C   0  0  0  0  0  0           0  0  0
   -1.2083    5.2000    0.0000 C   0  0  0  0  0  0           0  0  0
   -1.0833    4.2000    0.0000 C   0  0  0  0  0  0           0  0  0
    3.9250    2.9208    0.0000 C   0  0  0  0  0  0           0  0  0
  2  1  1  0     0  0
  3  7  1  0     0  0
  4 11  1  0     0  0
  5  3  1  0     0  0
  6 12  1  0     0  0
  7 10  1  0     0  0
  8  1  1  0     0  0
 11  9  1  0     0  0
 10  4  1  0     0  0
 11 18  1  0     0  0
  8 12  1  0     0  0
 13  2  1  0     0  0
 14 35  1  0     0  0
 15  9  1  0     0  0
 16 15  2  0     0  0
 17  4  2  0     0  0
 18 32  1  0     0  0
 19  6  1  0     0  0
 20  5  1  0     0  0
 21  5  2  0     0  0
 22  1  2  0     0  0
 23 13  1  0     0  0
 24 13  1  0     0  0
 25 33  2  0     0  0
 26  3  2  0     0  0
 27 20  2  0     0  0
 28 21  1  0     0  0
 29  6  2  0     0  0
 30 28  2  0     0  0
 31  9  2  0     0  0
 32 14  1  0     0  0
 33 31  1  0     0  0
 34 23  1  0     0  0
 35 24  1  0     0  0
 36  2  1  0     0  0
 37 16  1  0     0  0
 38 25  1  0     0  0
 39 27  1  0     0  0
 40 28  1  0     0  0
 41 17  1  0     0  0
 42  7  1  0     0  0
 43  8  1  0     0  0
 44 43  1  0     0  0
 45 19  1  0     0  0
 46 19  1  0     0  0
 47 41  1  0     0  0
 36 44  1  0     0  0
 34 14  1  0     0  0
 16 25  1  0     0  0
 30 27  1  0     0  0
M  END