
  Mrv0541 05211314572D          

 27 25  0  0  0  0            999 V2000
   -4.2263    0.0870    0.0000 C   0  0  0  0  0  0  0  0  0  0  0  0
    4.3473    0.0870    0.0000 C   0  0  0  0  0  0  0  0  0  0  0  0
   -4.3126   -0.7334    0.0000 N   0  0  0  0  0  0  0  0  0  0  0  0
    5.1010    0.4226    0.0000 N   0  0  0  0  0  0  0  0  0  0  0  0
    4.4336   -0.7334    0.0000 C   0  0  0  0  0  0  0  0  0  0  0  0
   -4.9800    0.4226    0.0000 C   0  0  0  0  0  0  0  0  0  0  0  0
    0.0605    0.0870    0.0000 C   0  0  0  0  0  0  0  0  0  0  0  0
   -5.1195   -0.9050    0.0000 C   0  0  0  0  0  0  0  0  0  0  0  0
    5.6530   -0.1905    0.0000 C   0  0  0  0  0  0  0  0  0  0  0  0
    5.2405   -0.9050    0.0000 N   0  0  0  0  0  0  0  0  0  0  0  0
   -5.5320   -0.1905    0.0000 N   0  0  0  0  0  0  0  0  0  0  0  0
    0.0605   -0.7380    0.0000 N   0  0  0  0  0  0  0  0  0  0  0  0
   -0.6540    0.4995    0.0000 N   0  0  0  0  0  0  0  0  0  0  0  0
    0.7750    0.4995    0.0000 N   0  0  0  0  0  0  0  0  0  0  0  0
    3.6329    0.4995    0.0000 C   0  0  0  0  0  0  0  0  0  0  0  0
   -3.5119    0.4995    0.0000 C   0  0  0  0  0  0  0  0  0  0  0  0
   -2.7974    0.0870    0.0000 S   0  0  0  0  0  0  0  0  0  0  0  0
    2.9184    0.0870    0.0000 S   0  0  0  0  0  0  0  0  0  0  0  0
    7.8923    0.0000    0.0000 Cl  0  0  0  0  0  0  0  0  0  0  0  0
    0.0000   -2.9355    0.0000 Cl  0  0  0  0  0  0  0  0  0  0  0  0
    2.2393   -2.9355    0.0000 Cl  0  0  0  0  0  0  0  0  0  0  0  0
    3.8205   -1.2855    0.0000 C   0  0  0  0  0  0  0  0  0  0  0  0
   -5.1515    1.2296    0.0000 C   0  0  0  0  0  0  0  0  0  0  0  0
    1.4894    0.0870    0.0000 C   0  0  0  0  0  0  0  0  0  0  0  0
   -1.3684    0.0870    0.0000 C   0  0  0  0  0  0  0  0  0  0  0  0
    2.2039    0.4995    0.0000 C   0  0  0  0  0  0  0  0  0  0  0  0
   -2.0829    0.4995    0.0000 C   0  0  0  0  0  0  0  0  0  0  0  0
  1  3  1  0  0  0  0
  2  4  1  0  0  0  0
  2  5  2  0  0  0  0
  1  6  2  0  0  0  0
  3  8  2  0  0  0  0
  4  9  2  0  0  0  0
  5 10  1  0  0  0  0
  9 10  1  0  0  0  0
  6 11  1  0  0  0  0
  8 11  1  0  0  0  0
  7 12  2  0  0  0  0
  7 13  1  0  0  0  0
  7 14  1  0  0  0  0
  2 15  1  0  0  0  0
  1 16  1  0  0  0  0
 16 17  1  0  0  0  0
 15 18  1  0  0  0  0
  5 22  1  0  0  0  0
  6 23  1  0  0  0  0
 14 24  1  0  0  0  0
 13 25  1  0  0  0  0
 18 26  1  0  0  0  0
 24 26  1  0  0  0  0
 17 27  1  0  0  0  0
 25 27  1  0  0  0  0
M  END