
  SciTegic08261113352D

 18 19  0  0  0  0            999 V2000
    2.0109   -4.1594    0.0000 C   0  0
    1.2948   -3.7469    0.0000 C   0  0
    2.7328   -3.7469    0.0000 C   0  0
    3.5464   -3.7355    0.0000 C   0  0
    3.1339   -3.0250    0.0000 C   0  0
    0.8823   -3.0308    0.0000 C   0  0
    0.4698   -3.7355    0.0000 C   0  0
    2.0109   -4.9844    0.0000 N   0  0
    6.0386   -5.6261    0.0000 N   0  0
    6.7605   -5.2136    0.0000 C   0  0
    3.1855   -5.6261    0.0000 O   0  0
    4.6120   -5.6261    0.0000 C   0  0  2  0  0  0
    5.3281   -5.2136    0.0000 C   0  0
    3.9016   -5.2136    0.0000 C   0  0
    4.6120   -6.4511    0.0000 O   0  0
    6.7605   -4.3886    0.0000 C   0  0
    7.4651   -4.8011    0.0000 C   0  0
    7.4651   -5.6261    0.0000 C   0  0
  2  1  1  0
  3  1  1  0
  4  3  1  0
  5  3  1  0
  6  2  1  0
  7  2  1  0
  8  1  2  0
  9 13  1  0
 10  9  1  0
 11  8  1  0
 12 14  1  0
 13 12  1  0
 14 11  1  0
 12 15  1  1
 16 10  1  0
 17 10  1  0
 18 10  1  0
  4  5  1  0
  6  7  1  0
M  END