
  CDK    9/16/09,9:46

 23 26  0  0  0  0  0  0  0  0999 V2000
   -5.8175   -0.7118    0.0000 C   0  0  0  0  0  0  0  0  0  0  0  0
   -5.1751   -0.0271    0.0000 C   0  0  0  0  0  0  0  0  0  0  0  0
   -5.0136   -0.4867    0.0000 C   0  0  0  0  0  0  0  0  0  0  0  0
   -4.4645   -0.2891    0.0000 C   0  0  0  0  0  0  0  0  0  0  0  0
   -4.2574   -0.7883    0.0000 C   0  0  0  0  0  0  0  0  0  0  0  0
   -3.7137   -0.1029    0.0000 C   0  0  0  0  0  0  0  0  0  0  0  0
   -5.0165    0.3657    0.0000 C   0  0  0  0  0  0  0  0  0  0  0  0
   -4.4582    1.0265    0.0000 C   0  0  0  0  0  0  0  0  0  0  0  0
   -5.1800    0.7715    0.0000 C   0  0  0  0  0  0  0  0  0  0  0  0
   -3.7073    0.7170    0.0000 C   0  0  0  0  0  0  0  0  0  0  0  0
   -3.0035   -0.5144    0.0000 C   0  0  0  0  0  0  0  0  0  0  0  0
   -2.2870   -0.1021    0.0000 N   0  0  0  0  0  0  0  0  0  0  0  0
   -1.5717   -0.5164    0.0000 C   0  0  0  0  0  0  0  0  0  0  0  0
   -0.8552   -0.1040    0.0000 C   0  0  0  0  0  0  0  0  0  0  0  0
   -1.5728   -1.3430    0.0000 O   0  0  0  0  0  0  0  0  0  0  0  0
   -0.1423   -0.5192    0.0000 C   0  0  0  0  0  0  0  0  0  0  0  0
    0.5737   -0.1076    0.0000 C   0  0  0  0  0  0  0  0  0  0  0  0
    0.5754    0.7200    0.0000 C   0  0  0  0  0  0  0  0  0  0  0  0
   -0.1450    1.1342    0.0000 C   0  0  0  0  0  0  0  0  0  0  0  0
   -0.8581    0.7202    0.0000 C   0  0  0  0  0  0  0  0  0  0  0  0
   -0.1446   -1.3459    0.0000 Cl  0  0  0  0  0  0  0  0  0  0  0  0
   -0.1468    1.9608    0.0000 O   0  0  0  0  0  0  0  0  0  0  0  0
    0.5683    2.3756    0.0000 C   0  0  0  0  0  0  0  0  0  0  0  0
  6 11  1  0  0  0  0 
  1  2  1  0  0  0  0 
 11 12  1  0  0  0  0 
  1  3  1  0  0  0  0 
 12 13  1  0  0  0  0 
  2  4  1  0  0  0  0 
 13 14  1  0  0  0  0 
  3  5  1  0  0  0  0 
 13 15  2  0  0  0  0 
  4  6  1  0  0  0  0 
 14 16  2  0  0  0  0 
  5  6  1  0  0  0  0 
 16 17  1  0  0  0  0 
  7  8  1  0  0  0  0 
 17 18  2  0  0  0  0 
  3  7  1  0  0  0  0 
 18 19  1  0  0  0  0 
  2  9  1  0  0  0  0 
 19 20  2  0  0  0  0 
 20 14  1  0  0  0  0 
  6 10  1  0  0  0  0 
 16 21  1  0  0  0  0 
 10  8  1  0  0  0  0 
 19 22  1  0  0  0  0 
  8  9  1  0  0  0  0 
 22 23  1  0  0  0  0 
M  END