
          11280715102D 1   1.00000     0.00000     0

 14 15  0     0  0            999 V2000
    1.6292   -1.4292    0.0000 C   0  0  0  0  0  0           0  0  0
    1.6292   -2.0375    0.0000 C   0  0  0  0  0  0           0  0  0
    2.1500   -2.3417    0.0000 C   0  0  0  0  0  0           0  0  0
    2.1500   -1.1250    0.0000 O   0  0  0  0  0  0           0  0  0
    2.6792   -1.4292    0.0000 C   0  0  0  0  0  0           0  0  0
    2.6792   -2.0375    0.0000 C   0  0  0  0  0  0           0  0  0
    1.1042   -1.1292    0.0000 C   0  0  0  0  0  0           0  0  0
    1.1042   -2.3375    0.0000 C   0  0  0  0  0  0           0  0  0
    0.5917   -2.0375    0.0000 C   0  0  0  0  0  0           0  0  0
    0.5917   -1.4375    0.0000 C   0  0  0  0  0  0           0  0  0
    3.1917   -1.1292    0.0000 O   0  0  0  0  0  0           0  0  0
    0.0667   -2.3375    0.0000 O   0  0  0  0  0  0           0  0  0
    0.0667   -1.1292    0.0000 O   0  0  0  0  0  0           0  0  0
    2.1417   -2.9417    0.0000 C   0  0  0  0  0  0           0  0  0
  2  1  1  0     0  0
  3  2  1  0     0  0
  4  1  1  0     0  0
  5  4  1  0     0  0
  6  5  1  0     0  0
  7  1  2  0     0  0
  8  2  2  0     0  0
  9 10  2  0     0  0
 10  7  1  0     0  0
 11  5  2  0     0  0
 12  9  1  0     0  0
 13 10  1  0     0  0
 14  3  1  0     0  0
  8  9  1  0     0  0
  3  6  2  0     0  0
M  END