
  SciTegic01161211252D

 25 26  0  0  0  0            999 V2000
   10.9725    0.0734    0.0000 C   0  0  2  0  0  0
   10.9725   -0.7562    0.0000 C   0  0  1  0  0  0
   11.6869   -1.1687    0.0000 C   0  0  2  0  0  0
   12.4060   -0.7562    0.0000 C   0  0  1  0  0  0
   12.4060    0.0734    0.0000 O   0  0
   11.6869    0.4904    0.0000 C   0  0  2  0  0  0
   10.2580   -1.1687    0.0000 N   0  0
   10.2570    0.4841    0.0000 O   0  0
   13.1199   -1.1697    0.0000 S   0  0
   13.8349   -0.7582    0.0000 C   0  0
    9.5436   -0.7562    0.0000 C   0  0
    8.8290   -1.1687    0.0000 C   0  0
    9.5436    0.0687    0.0000 O   0  0
    8.1158   -0.7521    0.0000 C   0  0
    7.4018   -1.1639    0.0000 C   0  0
    7.4013   -1.9898    0.0000 C   0  0
    8.1208   -2.4021    0.0000 C   0  0
    8.8319   -1.9879    0.0000 C   0  0
    6.6874   -2.4032    0.0000 C   0  0
   11.6858   -1.9937    0.0000 O   0  0
   11.6858    1.3154    0.0000 C   0  0
   12.3997    1.7289    0.0000 O   0  0
   12.3997   -2.4072    0.0000 P   0  0
   12.3985   -3.2322    0.0000 O   0  0
   13.1147   -1.9957    0.0000 O   0  0
  5  6  1  0
 11 13  2  0
 12 14  2  0
  2  7  1  1
 14 15  1  0
  1  2  1  0
 15 16  2  0
  1  8  1  1
 16 17  1  0
  1  6  1  0
 17 18  2  0
 18 12  1  0
  4  9  1  1
 16 19  1  0
  2  3  1  0
  3 20  1  6
  9 10  1  0
  6 21  1  1
  3  4  1  0
 21 22  1  0
  7 11  1  0
 20 23  1  0
  4  5  1  0
 23 24  2  0
 11 12  1  0
 23 25  1  0
M  END