
  SciTegic07141513232D

 25 26  0  0  0  0            999 V2000
    5.9112   -6.5276    0.0000 C   0  0
    5.1977   -6.1247    0.0000 C   0  0
    6.6246   -6.1150    0.0000 C   0  0
    3.7612   -3.6495    0.0000 N   0  3
    5.1881   -7.7748    0.0000 N   0  0
    5.9112   -7.3526    0.0000 C   0  0
    4.4843   -6.5372    0.0000 N   0  0
    4.4843   -7.3526    0.0000 C   0  0
    5.1881   -5.2997    0.0000 C   0  0
    4.4843   -4.0621    0.0000 C   0  0
    4.4843   -4.8871    0.0000 C   0  0
    7.3380   -6.5276    0.0000 O   0  0
    3.7612   -2.8245    0.0000 O   0  5
    3.0526   -4.0621    0.0000 O   0  0
    6.6149   -5.2900    0.0000 O   0  0
    3.7612   -7.7651    0.0000 S   0  0
    6.6246   -7.7651    0.0000 C   0  0
    5.9112   -4.8871    0.0000 C   0  0
    8.0514   -6.1150    0.0000 C   0  0
    5.1881   -3.6399    0.0000 C   0  0
    5.9112   -4.0524    0.0000 C   0  0
    3.0575   -7.3331    0.0000 C   0  0
    8.7648   -6.5276    0.0000 C   0  0
    8.0514   -5.2900    0.0000 C   0  0
    8.7648   -7.3526    0.0000 C   0  0
  2  1  1  0
  3  1  1  0
  4 10  1  0
  5  6  1  0
  6  1  2  0
  7  2  1  0
  8  5  1  0
  9  2  1  0
 10 11  2  0
 11  9  1  0
 12  3  1  0
 13  4  1  0
 14  4  2  0
 15  3  2  0
 16  8  1  0
 17  6  1  0
 18  9  2  0
 19 12  1  0
 20 21  2  0
 21 18  1  0
 22 16  1  0
 23 19  1  0
 24 19  1  0
 25 23  1  0
  7  8  2  0
 10 20  1  0
M  CHG  2   4   1  13  -1
M  END