
  SciTegic04021211102D

 27 29  0  0  0  0            999 V2000
   10.9723  -25.2003    0.0000 C   0  0
   10.9710  -26.0248    0.0000 C   0  0
   11.6861  -26.4362    0.0000 C   0  0
   12.4029  -26.0243    0.0000 C   0  0
   12.4000  -25.1966    0.0000 C   0  0
   11.6842  -24.7847    0.0000 C   0  0
   13.1054  -24.7798    0.0000 C   0  0
   13.8221  -25.1940    0.0000 C   0  0
   14.5346  -24.7766    0.0000 C   0  0
   14.5318  -23.9538    0.0000 N   0  0
   13.8102  -23.5458    0.0000 C   0  0
   13.1008  -23.9613    0.0000 N   0  0
   11.6859  -27.2625    0.0000 C   0  0
   12.4006  -27.6736    0.0000 N   0  0
   13.1110  -27.2628    0.0000 C   0  0
   13.8256  -27.6740    0.0000 C   0  0
   11.6817  -23.9628    0.0000 C   0  0
   13.8039  -22.7195    0.0000 N   0  0
   14.5404  -27.2632    0.0000 N   0  0
   15.2550  -27.6743    0.0000 C   0  0
   15.9654  -27.2636    0.0000 O   0  0
   10.9365  -27.6958    0.0000 O   0  0
   15.9649  -26.4429    0.0000 C   0  0
   15.2539  -26.0331    0.0000 C   0  0
   15.2534  -25.2124    0.0000 S   0  0
   15.2559  -28.5400    0.0000 O   0  0
   10.2214  -26.4577    0.0000 C   0  0
  3 13  1  0
  1  2  2  0
 13 14  1  0
  3  4  2  0
 14 15  1  0
  7  8  2  0
 15 16  1  0
  6 17  1  0
  8  9  1  0
 11 18  1  0
  4  5  1  0
 16 19  1  0
  9 10  2  0
 19 20  1  0
  2  3  1  0
 20 21  1  0
 10 11  1  0
 13 22  2  0
  5  6  2  0
 21 23  1  0
 11 12  2  0
 23 24  1  0
 12  7  1  0
 24 25  1  0
  9 25  1  0
  5  7  1  0
 20 26  2  0
  6  1  1  0
  2 27  1  0
M  END