
  CDK    6/4/10,11:42

 35 39  0  0  0  0  0  0  0  0999 V2000
    1.9126   -2.6733    0.0000 C   0  0  0  0  0  0  0  0  0  0  0  0
    1.6518   -3.4596    0.0000 N   0  0  0  0  0  0  0  0  0  0  0  0
    0.8252   -3.4564    0.0000 N   0  0  0  0  0  0  0  0  0  0  0  0
    0.5693   -2.6708    0.0000 N   0  0  0  0  0  0  0  0  0  0  0  0
    1.2428   -2.1845    0.0000 N   0  0  0  0  0  0  0  0  0  0  0  0
    6.3960   -0.5815    0.0000 C   0  0  0  0  0  0  0  0  0  0  0  0
    6.3844    0.2458    0.0000 N   0  0  0  0  0  0  0  0  0  0  0  0
    5.6633    0.6476    0.0000 C   0  0  0  0  0  0  0  0  0  0  0  0
    5.6907   -1.0052    0.0000 N   0  0  0  0  0  0  0  0  0  0  0  0
    5.6508    1.4725    0.0000 N   0  0  0  0  0  0  0  0  0  0  0  0
    4.9690   -0.6072    0.0000 C   0  0  0  0  0  0  0  0  0  0  0  0
    4.9559    0.2238    0.0000 C   0  0  0  0  0  0  0  0  0  0  0  0
    4.1616    0.4681    0.0000 N   0  0  0  0  0  0  0  0  0  0  0  0
    3.6837   -0.2119    0.0000 C   0  0  0  0  0  0  0  0  0  0  0  0
    4.1809   -0.8768    0.0000 N   0  0  0  0  0  0  0  0  0  0  0  0
    3.7245   -1.5628    0.0000 C   0  0  0  0  0  0  0  0  0  0  0  0
    2.9046   -1.5932    0.0000 O   0  0  0  0  0  0  0  0  0  0  0  0
    2.6833   -2.3881    0.0000 C   0  0  0  0  0  0  0  0  0  0  0  0
    3.3701   -2.8444    0.0000 C   0  0  0  0  0  0  0  0  0  0  0  0
    4.0165   -2.3318    0.0000 C   0  0  0  0  0  0  0  0  0  0  0  0
    4.8119   -2.5507    0.0000 O   0  0  0  0  0  0  0  0  0  0  0  0
    3.4049   -3.6686    0.0000 O   0  0  0  0  0  0  0  0  0  0  0  0
    7.1169   -0.9827    0.0000 N   0  0  0  0  0  0  0  0  0  0  0  0
    7.8248   -0.5591    0.0000 C   0  0  0  0  0  0  0  0  0  0  0  0
    8.5457   -0.9603    0.0000 C   0  0  0  0  0  0  0  0  0  0  0  0
    7.8119    0.2658    0.0000 C   0  0  0  0  0  0  0  0  0  0  0  0
    8.5198    0.6895    0.0000 O   0  0  0  0  0  0  0  0  0  0  0  0
    9.2536   -0.5366    0.0000 C   0  0  0  0  0  0  0  0  0  0  0  0
    9.9700   -0.9416    0.0000 C   0  0  0  0  0  0  0  0  0  0  0  0
   10.6774   -0.5187    0.0000 C   0  0  0  0  0  0  0  0  0  0  0  0
   10.6649    0.3071    0.0000 C   0  0  0  0  0  0  0  0  0  0  0  0
    9.9390    0.7081    0.0000 C   0  0  0  0  0  0  0  0  0  0  0  0
    9.2346    0.2828    0.0000 C   0  0  0  0  0  0  0  0  0  0  0  0
   -0.2151   -2.4149    0.0000 C   0  0  0  0  0  0  0  0  0  0  0  0
   -0.3857   -1.6078    0.0000 C   0  0  0  0  0  0  0  0  0  0  0  0
  8 12  2  0  0  0  0 
  3  4  1  0  0  0  0 
 11  9  2  0  0  0  0 
  9  6  1  0  0  0  0 
 17 18  1  0  0  0  0 
 18 19  1  0  0  0  0 
 19 20  1  0  0  0  0 
 20 16  1  0  0  0  0 
  4  5  1  0  0  0  0 
 20 21  1  6  0  0  0 
  8 10  1  0  0  0  0 
 19 22  1  6  0  0  0 
 11 12  1  0  0  0  0 
  6 23  1  0  0  0  0 
  1  5  2  0  0  0  0 
 23 24  1  0  0  0  0 
 24 25  1  0  0  0  0 
  1  2  1  0  0  0  0 
 24 26  1  6  0  0  0 
  6  7  2  0  0  0  0 
 26 27  1  0  0  0  0 
  2  3  2  0  0  0  0 
 25 28  1  0  0  0  0 
 12 13  1  0  0  0  0 
 28 29  2  0  0  0  0 
 13 14  2  0  0  0  0 
 29 30  1  0  0  0  0 
 14 15  1  0  0  0  0 
 30 31  2  0  0  0  0 
 15 11  1  0  0  0  0 
 31 32  1  0  0  0  0 
  7  8  1  0  0  0  0 
 32 33  2  0  0  0  0 
 33 28  1  0  0  0  0 
 18  1  1  1  0  0  0 
 16 15  1  1  0  0  0 
  4 34  1  0  0  0  0 
 16 17  1  0  0  0  0 
 34 35  1  0  0  0  0 
M  END