
  SciTegic12231509382D

 30 33  0  0  0  0            999 V2000
   -1.8853   -0.1196    0.0000 N   0  0
   -1.2237    0.3735    0.0000 N   0  0
   -1.4882    1.1552    0.0000 C   0  0
   -2.3134    1.1451    0.0000 C   0  0
   -2.5586    0.3579    0.0000 C   0  0
   -3.2727   -0.0478    0.0000 C   0  0
   -3.9836    0.3727    0.0000 C   0  0
   -4.7011   -0.0326    0.0000 C   0  0
   -4.7088   -0.8583    0.0000 C   0  0
   -3.9932   -1.2769    0.0000 C   0  0
   -3.2787   -0.8692    0.0000 C   0  0
   -2.8064    1.8064    0.0000 C   0  0
   -1.0842    1.8747    0.0000 C   0  0
   -0.2595    1.8847    0.0000 N   0  0
   -1.5052    2.5839    0.0000 O   0  0
    0.1442    2.6039    0.0000 N   0  0
    0.9708    2.6086    0.0000 C   0  0
    1.3747    3.3219    0.0000 C   0  0
    0.9575    4.0341    0.0000 C   0  0
    0.1317    4.0320    0.0000 C   0  0
   -0.2761    3.3011    0.0000 C   0  0
   -1.8731   -0.9422    0.0000 C   0  0
   -2.5839   -1.3627    0.0000 C   0  0
   -2.5742   -2.1867    0.0000 C   0  0
   -1.8544   -2.5911    0.0000 C   0  0
   -1.1429   -2.1656    0.0000 C   0  0
   -1.1561   -1.3430    0.0000 C   0  0
   -5.4263   -1.2652    0.0000 Cl  0  0
   -0.4481   -0.9201    0.0000 Cl  0  0
   -1.8433   -3.4159    0.0000 Cl  0  0
  2  3  2  0
 13 15  2  0
  7  8  1  0
 14 16  1  0
 16 17  1  0
  3  4  1  0
  8  9  2  0
  4  5  2  0
  9 10  1  0
  5  1  1  0
 16 21  1  0
 17 18  1  0
 18 19  1  0
 19 20  1  0
 20 21  1  0
 10 11  2  0
 11  6  1  0
 22 23  2  0
  5  6  1  0
 23 24  1  0
  1  2  1  0
 24 25  2  0
  4 12  1  0
 25 26  1  0
 26 27  2  0
 27 22  1  0
  1 22  1  0
  3 13  1  0
  9 28  1  0
  6  7  2  0
 27 29  1  0
 13 14  1  0
 25 30  1  0
M  END