
          11280715422D 1   1.00000     0.00000     0

 33 37  0     0  0            999 V2000
   -0.8583    0.6333    0.0000 C   0  0  0  0  0  0           0  0  0
   -0.8583    1.4708    0.0000 N   0  0  0  0  0  0           0  0  0
    1.9917   -1.0375    0.0000 C   0  0  0  0  0  0           0  0  0
    1.9792   -1.8542    0.0000 C   0  0  0  0  0  0           0  0  0
   -2.2958    1.4708    0.0000 C   0  0  0  0  0  0           0  0  0
    2.6917   -0.6292    0.0000 C   0  0  0  0  0  0           0  0  0
   -1.5833    1.8958    0.0000 C   0  0  0  0  0  0           0  0  0
   -1.5833    0.2208    0.0000 N   0  0  0  0  0  0           0  0  0
   -2.2958    0.6333    0.0000 C   0  0  0  0  0  0           0  0  0
    2.6917   -2.2792    0.0000 C   0  0  0  0  0  0           0  0  0
    3.4042   -1.0375    0.0000 C   0  0  0  0  0  0           0  0  0
    1.2792   -0.6167    0.0000 N   0  0  3  0  0  0           0  0  0
   -0.1458    0.2208    0.0000 N   0  0  3  0  0  0           0  0  0
    3.4042   -1.8667    0.0000 C   0  0  0  0  0  0           0  0  0
   -3.0083    1.8833    0.0000 C   0  0  0  0  0  0           0  0  0
   -3.0083    0.2250    0.0000 C   0  0  0  0  0  0           0  0  0
   -3.7333    1.4708    0.0000 C   0  0  0  0  0  0           0  0  0
   -3.7333    0.6458    0.0000 C   0  0  0  0  0  0           0  0  0
    2.7042    0.1958    0.0000 O   0  0  0  0  0  0           0  0  0
    1.2792    0.2083    0.0000 C   0  0  0  0  0  0           0  0  0
    0.5542   -1.0250    0.0000 C   0  0  0  0  0  0           0  0  0
    0.5667    0.6250    0.0000 C   0  0  0  0  0  0           0  0  0
   -0.1583   -0.6125    0.0000 C   0  0  0  0  0  0           0  0  0
    2.6917   -3.1042    0.0000 O   0  0  0  0  0  0           0  0  0
   -1.5833    2.7125    0.0000 N   0  0  0  0  0  0           0  0  0
   -4.4333    1.8750    0.0000 O   0  0  0  0  0  0           0  0  0
   -4.4458    0.2250    0.0000 O   0  0  0  0  0  0           0  0  0
    4.1292   -0.6292    0.0000 C   0  0  0  0  0  0           0  0  0
    4.1167   -2.2792    0.0000 C   0  0  0  0  0  0           0  0  0
   -4.4333    2.7083    0.0000 C   0  0  0  0  0  0           0  0  0
   -5.1583    0.6458    0.0000 C   0  0  0  0  0  0           0  0  0
    4.8417   -1.0375    0.0000 C   0  0  0  0  0  0           0  0  0
    4.8292   -1.8750    0.0000 C   0  0  0  0  0  0           0  0  0
  2  1  1  0     0  0
  3 12  1  0     0  0
  4  3  2  0     0  0
  5  9  1  0     0  0
  6  3  1  0     0  0
  7  2  2  0     0  0
  8  1  2  0     0  0
  9  8  1  0     0  0
 10  4  1  0     0  0
 11  6  1  0     0  0
 12 21  1  0     0  0
 13  1  1  0     0  0
 14 11  2  0     0  0
 15  5  2  0     0  0
 16  9  2  0     0  0
 17 18  2  0     0  0
 18 16  1  0     0  0
 19  6  2  0     0  0
 20 22  1  0     0  0
 21 23  1  0     0  0
 22 13  1  0     0  0
 23 13  1  0     0  0
 24 10  2  0     0  0
 25  7  1  0     0  0
 26 17  1  0     0  0
 27 18  1  0     0  0
 28 11  1  0     0  0
 29 14  1  0     0  0
 30 26  1  0     0  0
 31 27  1  0     0  0
 32 28  2  0     0  0
 33 32  1  0     0  0
  5  7  1  0     0  0
 12 20  1  0     0  0
 15 17  1  0     0  0
 14 10  1  0     0  0
 29 33  2  0     0  0
M  END