
          11280715032D 1   1.00000     0.00000     0

 34 37  0     1  0            999 V2000
    4.5750   -4.2167    0.0000 C   0  0  1  0  0  0           0  0  0
    3.7500   -4.2167    0.0000 O   0  0  0  0  0  0           0  0  0
    4.8292   -3.4292    0.0000 C   0  0  2  0  0  0           0  0  0
    5.0542   -4.8875    0.0000 C   0  0  0  0  0  0           0  0  0
    4.1625   -2.9500    0.0000 C   0  0  2  0  0  0           0  0  0
    3.4917   -3.4292    0.0000 C   0  0  0  0  0  0           0  0  0
    9.9750   -3.8875    0.0000 C   0  0  0  0  0  0           0  0  0
    4.8667    0.7708    0.0000 C   0  0  0  0  0  0           0  0  0
    4.1542   -2.1250    0.0000 O   0  0  0  0  0  0           0  0  0
    5.1917   -6.3000    0.0000 N   0  0  0  0  0  0           0  0  0
    9.9750   -4.7125    0.0000 O   0  0  0  0  0  0           0  0  0
    4.8625    1.5833    0.0000 C   0  0  0  0  0  0           0  0  0
    5.5875    0.3583    0.0000 C   0  0  0  0  0  0           0  0  0
    4.1542    0.3500    0.0000 C   0  0  0  0  0  0           0  0  0
    7.0125   -3.4750    0.0000 C   0  0  0  0  0  0           0  0  0
    7.8375   -3.4750    0.0000 C   0  0  0  0  0  0           0  0  0
    4.8750   -1.7042    0.0000 C   0  0  0  0  0  0           0  0  0
    4.8667   -0.8792    0.0000 C   0  0  0  0  0  0           0  0  0
   10.6917   -3.4750    0.0000 O   0  0  0  0  0  0           0  0  0
    4.1542   -0.4750    0.0000 C   0  0  0  0  0  0           0  0  0
    5.5875   -0.4667    0.0000 C   0  0  0  0  0  0           0  0  0
    4.7167   -5.6375    0.0000 C   0  0  0  0  0  0           0  0  0
    5.6167   -3.1750    0.0000 C   0  0  0  0  0  0           0  0  0
    9.2625   -3.4750    0.0000 C   0  0  0  0  0  0           0  0  0
    5.8667   -4.8000    0.0000 C   0  0  0  0  0  0           0  0  0
    6.0167   -6.2167    0.0000 C   0  0  0  0  0  0           0  0  0
    6.2250   -3.7292    0.0000 C   0  0  0  0  0  0           0  0  0
    8.5500   -3.8875    0.0000 C   0  0  0  0  0  0           0  0  0
    5.5875    2.0000    0.0000 C   0  0  0  0  0  0           0  0  0
    4.1500    1.9875    0.0000 C   0  0  0  0  0  0           0  0  0
    6.3542   -5.4625    0.0000 C   0  0  0  0  0  0           0  0  0
    5.5792    2.8333    0.0000 C   0  0  0  0  0  0           0  0  0
    4.1500    2.8333    0.0000 C   0  0  0  0  0  0           0  0  0
    4.8667    3.2375    0.0000 C   0  0  0  0  0  0           0  0  0
  2  1  1  0     0  0
  3  1  1  0     0  0
  1  4  1  1     0  0
  5  3  1  0     0  0
  6  2  1  0     0  0
  7 24  1  0     0  0
  8 13  2  0     0  0
  5  9  1  6     0  0
 10 22  1  0     0  0
 11  7  2  0     0  0
 12  8  1  0     0  0
 13 21  1  0     0  0
 14 20  2  0     0  0
 15 27  1  0     0  0
 16 15  2  0     0  0
 17  9  1  0     0  0
 18 17  1  0     0  0
 19  7  1  0     0  0
 20 18  1  0     0  0
 21 18  2  0     0  0
 22  4  2  0     0  0
  3 23  1  6     0  0
 24 28  1  0     0  0
 25  4  1  0     0  0
 26 31  1  0     0  0
 27 23  1  0     0  0
 28 16  1  0     0  0
 29 12  2  0     0  0
 30 12  1  0     0  0
 31 25  2  0     0  0
 32 29  1  0     0  0
 33 30  2  0     0  0
 34 33  1  0     0  0
  5  6  1  0     0  0
 10 26  2  0     0  0
 14  8  1  0     0  0
 32 34  2  0     0  0
M  END