
  SciTegic04191613082D

179189  0  0  1  0            999 V2000
   35.6329   43.7346    0.0000 C   0  0
   35.0583   45.1342    0.0000 C   0  0
   33.5733   45.3255    0.0000 C   0  0
   32.6628   44.1172    0.0000 C   0  0
   33.2397   42.7357    0.0000 C   0  0
   34.7248   42.5445    0.0000 C   0  0
   35.3017   41.1630    0.0000 C   0  0
   34.3935   39.9729    0.0000 C   0  0
   32.9083   40.1638    0.0000 C   0  0
   31.9956   38.9724    0.0000 C   0  0
   32.5748   37.5749    0.0000 C   0  0  2  0  0  0
   34.0080   38.0176    0.0000 N   0  0
   35.4991   38.1811    0.0000 C   0  0
   36.9941   38.0594    0.0000 C   0  0  1  0  0  0
   36.6228   39.5217    0.0000 C   0  0
   37.6939   40.5719    0.0000 C   0  0
   39.1389   40.1695    0.0000 C   0  0
   39.5129   38.7168    0.0000 C   0  0
   38.4391   37.6570    0.0000 N   0  0
   39.7819   36.9883    0.0000 C   0  0
   40.3107   37.8371    0.0000 O   0  0
   40.9738   36.0777    0.0000 C   0  0  1  0  0  0
   42.0044   37.1850    0.0000 C   0  0  1  0  0  0
   43.1741   36.9169    0.0000 O   0  0
   41.6522   38.3321    0.0000 C   0  0
   41.9719   34.9579    0.0000 N   0  0
   42.7399   33.6695    0.0000 C   0  0
   43.2503   32.2590    0.0000 C   0  0  2  0  0  0
   44.7146   32.6390    0.0000 C   0  0
   45.1153   34.0853    0.0000 C   0  0
   44.1778   35.2399    0.0000 C   0  0
   45.0080   36.4892    0.0000 N   0  0
   46.4527   36.0857    0.0000 C   0  0
   46.5154   34.5870    0.0000 N   0  0
   43.4845   30.7774    0.0000 N   0  0
   43.4341   29.2782    0.0000 C   0  0
   43.1009   27.8157    0.0000 C   0  0  2  0  0  0
   42.4969   26.4427    0.0000 N   0  0
   41.6440   25.2088    0.0000 C   0  0
   42.4088   24.5645    0.0000 O   0  0
   40.5730   24.1586    0.0000 C   0  0
   41.0772   24.4976    0.0000 C   0  0
   40.5104   24.2722    0.0000 C   0  0
   41.5218   25.3799    0.0000 C   0  0
   42.3247   24.7839    0.0000 O   0  0
   42.2894   26.6686    0.0000 N   0  0
   42.7820   28.0855    0.0000 C   0  0
   42.9792   29.5724    0.0000 C   0  0  1  0  0  0
   44.4148   30.0489    0.0000 C   0  0
   44.6565   31.2243    0.0000 O   0  0
   45.5370   29.0524    0.0000 N   0  0
   46.9615   29.5251    0.0000 C   0  0  1  0  0  0
   48.0837   28.5286    0.0000 C   0  0
   49.5081   29.0014    0.0000 C   0  0
   50.6304   28.0048    0.0000 C   0  0
   52.0548   28.4776    0.0000 C   0  0
   52.9521   27.6808    0.0000 N   0  0
   47.2668   30.9946    0.0000 C   0  0
   48.4062   31.3713    0.0000 O   0  0
   46.3712   31.7932    0.0000 O   0  0
   42.8731   31.0687    0.0000 N   0  0
   42.4680   32.5129    0.0000 C   0  0
   43.5847   32.9523    0.0000 O   0  0
   41.7804   33.8461    0.0000 C   0  0  2  0  0  0
   43.0493   34.6694    0.0000 C   0  0
   42.9722   36.1682    0.0000 C   0  0
   44.2312   36.9852    0.0000 C   0  0
   44.1541   38.4840    0.0000 N   0  0
   45.4131   39.3010    0.0000 C   0  0
   46.4820   38.7555    0.0000 N   0  0
   45.3515   40.4994    0.0000 N   0  0
   40.8386   35.0135    0.0000 N   0  0
   39.6810   35.9675    0.0000 C   0  0
   38.3551   36.6689    0.0000 C   0  0  2  0  0  0
   39.3708   37.7897    0.0000 C   0  0
   40.3779   38.9024    0.0000 C   0  0
   40.4351   40.4021    0.0000 C   0  0
   41.9218   40.6072    0.0000 N   0  0
   42.4885   41.9969    0.0000 C   0  0
   41.7525   42.9447    0.0000 N   0  0
   43.6773   42.1609    0.0000 N   0  0
   36.9151   37.0890    0.0000 N   0  0
   35.4201   37.2107    0.0000 C   0  0
   35.3999   38.2105    0.0000 O   0  0
   33.9311   37.0289    0.0000 C   0  0  2  0  0  0
   34.1245   38.5291    0.0000 C   0  0
   32.6922   38.9774    0.0000 C   0  0
   31.8823   40.2410    0.0000 C   0  0
   30.4500   40.6893    0.0000 N   0  0
   30.1212   42.1536    0.0000 C   0  0
   28.9760   42.5121    0.0000 N   0  0
   31.0039   42.9665    0.0000 N   0  0
   32.5092   36.5512    0.0000 N   0  0
   31.2126   35.7970    0.0000 C   0  0
   30.0944   34.7972    0.0000 C   0  0  1  0  0  0
   29.2003   33.5928    0.0000 N   0  0
   28.5669   32.2331    0.0000 C   0  0
   28.2203   30.7737    0.0000 C   0  0  2  0  0  0
   26.7212   30.9755    0.0000 C   0  0
   26.1501   32.3634    0.0000 C   0  0
   27.0618   33.5514    0.0000 C   0  0
   26.4734   34.9452    0.0000 C   0  0
   24.9889   35.1393    0.0000 C   0  0
   24.0784   33.9507    0.0000 C   0  0
   24.6523   32.5680    0.0000 C   0  0
   22.5940   34.1447    0.0000 C   0  0
   22.0201   35.5274    0.0000 C   0  0
   22.9306   36.7160    0.0000 C   0  0
   24.4150   36.5220    0.0000 C   0  0
   28.1745   29.2744    0.0000 N   0  0
   28.4314   27.7965    0.0000 C   0  0
   27.2760   27.4724    0.0000 O   0  0
   28.9806   26.4007    0.0000 C   0  0  2  0  0  0
   27.4798   26.2119    0.0000 C   0  0
   26.5723   27.4072    0.0000 C   0  0
   25.0837   27.2221    0.0000 C   0  0
   24.1791   28.4186    0.0000 C   0  0
   24.7630   29.8003    0.0000 C   0  0
   26.2515   29.9855    0.0000 C   0  0
   27.1562   28.7890    0.0000 C   0  0
   29.7995   25.1439    0.0000 N   0  0
   30.8546   24.0778    0.0000 C   0  0
   32.0924   23.2289    0.0000 C   0  0  1  0  0  0
   30.8193   24.0221    0.0000 N   0  0
   29.7193   25.0420    0.0000 C   0  0
   28.8235   24.2435    0.0000 O   0  0
   28.8322   26.2516    0.0000 C   0  0  1  0  0  0
   27.9733   25.7395    0.0000 C   0  0
   28.1901   27.6072    0.0000 N   0  0
   27.8161   29.0598    0.0000 C   0  0
   27.7238   30.5569    0.0000 C   0  0  1  0  0  0
   27.9165   32.0445    0.0000 N   0  0
   28.3872   33.4687    0.0000 C   0  0
   27.4718   33.8714    0.0000 O   0  0
   29.1189   34.7781    0.0000 C   0  0  2  0  0  0
   27.8729   35.6359    0.0000 C   0  0
   27.9908   37.1321    0.0000 C   0  0
   26.7546   37.9831    0.0000 C   0  0
   26.8725   39.4793    0.0000 N   0  0
   25.6363   40.3303    0.0000 C   0  0
   25.7306   41.5266    0.0000 N   0  0
   24.5530   39.8142    0.0000 N   0  0
   30.0853   35.9254    0.0000 N   0  0
   31.2513   36.8690    0.0000 C   0  0
   30.5884   37.8694    0.0000 O   0  0
   26.7243   30.5905    0.0000 C   0  0
   26.6308   28.8724    0.0000 O   0  0
   33.4926   22.6909    0.0000 C   0  0
   34.9693   22.4277    0.0000 N   0  0
   36.4692   22.4487    0.0000 C   0  0
   36.5999   21.2558    0.0000 O   0  0
   37.9380   22.7531    0.0000 C   0  0
   39.2967   23.3906    0.0000 C   0  0
   39.3226   23.3300    0.0000 C   0  0
   30.0853   23.1568    0.0000 O   0  0
   27.4335   32.6271    0.0000 O   0  0
   28.9793   35.8192    0.0000 C   0  0
   29.3034   37.2846    0.0000 C   0  0
   28.1970   38.2987    0.0000 C   0  0
   28.5211   39.7641    0.0000 N   0  0
   27.4147   40.7782    0.0000 C   0  0
   27.6738   41.9499    0.0000 N   0  0
   26.2703   40.4171    0.0000 N   0  0
   30.5074   36.7679    0.0000 O   0  0
   40.3465   36.9660    0.0000 O   0  0
   44.5381   27.3437    0.0000 C   0  0
   44.8465   25.8749    0.0000 C   0  0
   46.2710   25.4048    0.0000 C   0  0
   46.5762   23.9362    0.0000 C   0  0
   45.4569   22.9376    0.0000 C   0  0
   44.0324   23.4076    0.0000 C   0  0
   43.7272   24.8762    0.0000 C   0  0
   44.4258   29.1498    0.0000 O   0  0
   43.8244   34.1832    0.0000 O   0  0
   35.4823   39.3810    0.0000 O   0  0
   32.3316   41.5456    0.0000 C   0  0
   31.2555   23.7762    0.0000 H   0  0
   41.9737   36.0669    0.0000 H   0  0
   36.2304   38.7049    0.0000 H   0  0
  2  1  1  0
  3  2  2  0
  4  3  1  0
  5  4  2  0
  6  5  1  0
  1  6  2  0
  6  7  1  0
  7  8  2  0
  8  9  1  0
 10  9  1  0
 11 10  1  6
 11 12  1  0
 12 13  1  0
 14 13  1  0
 14 15  1  0
 15 16  1  0
 16 17  1  0
 17 18  1  0
 18 19  1  0
 19 20  1  0
 20 21  2  0
 20 22  1  0
 22 23  1  0
 23 24  1  6
 23 25  1  0
 22 26  1  0
 26 27  1  0
 27 28  1  0
 28 29  1  6
 29 30  1  0
 30 31  2  0
 31 32  1  0
 32 33  2  0
 33 34  1  0
 34 30  1  0
 28 35  1  0
 35 36  1  0
 37 36  1  0
 38 37  1  0
 38 39  1  0
 39 40  2  0
 39 41  1  0
 41 42  2  0
 42 43  1  0
 43 44  1  0
 44 45  2  0
 44 46  1  0
 46 47  1  0
 48 47  1  0
 48 49  1  6
 49 50  2  0
 49 51  1  0
 52 51  1  6
 52 53  1  0
 53 54  1  0
 54 55  1  0
 55 56  1  0
 56 57  1  0
 52 58  1  0
 58 59  2  0
 58 60  1  0
 48 61  1  0
 61 62  1  0
 62 63  2  0
 62 64  1  0
 64 65  1  1
 65 66  1  0
 66 67  1  0
 67 68  1  0
 68 69  1  0
 69 70  1  0
 69 71  2  0
 64 72  1  0
 72 73  1  0
 73 74  1  0
 74 75  1  1
 75 76  1  0
 76 77  1  0
 77 78  1  0
 78 79  1  0
 79 80  1  0
 79 81  2  0
 74 82  1  0
 83 82  1  0
 83 84  2  0
 85 83  1  0
 85 86  1  1
 86 87  1  0
 87 88  1  0
 88 89  1  0
 89 90  1  0
 90 91  2  0
 90 92  1  0
 93 85  1  0
 94 93  1  0
 95 94  1  0
 96 95  1  0
 97 96  1  0
 98 97  1  0
 98 99  1  1
 99100  1  0
101100  1  0
102101  2  0
103102  1  0
103104  1  0
105104  1  0
100105  2  0
104106  2  0
106107  1  0
107108  2  0
108109  1  0
109103  2  0
110 98  1  0
111110  1  0
111112  2  0
113111  1  0
113114  1  1
114115  1  0
116115  1  0
117116  2  0
118117  1  0
119118  2  0
120119  1  0
115120  2  0
121113  1  0
122121  1  0
123122  1  0
124123  1  0
125124  1  0
125126  2  0
127125  1  0
127128  1  1
129127  1  0
130129  1  0
131130  1  0
132131  1  0
133132  1  0
133134  2  0
135133  1  0
135136  1  6
136137  1  0
137138  1  0
138139  1  0
139140  1  0
140141  2  0
140142  1  0
143135  1  0
144143  1  0
 11144  1  0
144145  2  0
131146  1  6
130147  2  0
123148  1  0
148149  1  0
150149  1  0
150151  2  0
152150  1  0
153152  1  0
 43153  2  0
152154  2  0
154 41  1  0
122155  2  0
 97156  2  0
 95157  1  1
157158  1  0
158159  1  0
159160  1  0
160161  1  0
161162  2  0
161163  1  0
 94164  2  0
 73165  2  0
 37166  1  1
166167  1  0
168167  1  0
169168  2  0
170169  1  0
171170  2  0
172171  1  0
167172  2  0
 36173  2  0
 27174  2  0
 14 19  1  0
 13175  2  0
  9176  2  0
176  5  1  0
123177  1  1
 22178  1  6
 14179  1  6
M  END