
          11280715082D 1   1.00000     0.00000     0

 12 12  0     0  0            999 V2000
   -0.2458   -3.3292    0.0000 P   0  0  3  0  0  0           0  0  0
    0.1042   -2.8500    0.0000 C   0  0  0  0  0  0           0  0  0
   -0.0500   -2.2667    0.0000 C   0  0  0  0  0  0           0  0  0
   -0.5750   -2.7042    0.0000 O   0  0  0  0  0  0           0  0  0
    0.3667   -1.8417    0.0000 C   0  0  0  0  0  0           0  0  0
   -0.6708   -3.9542    0.0000 O   0  0  0  0  0  0           0  0  0
    0.3250   -3.5667    0.0000 O   0  0  0  0  0  0           0  0  0
   -0.6208   -2.1125    0.0000 C   0  0  0  0  0  0           0  0  0
    0.9500   -2.0000    0.0000 C   0  0  0  0  0  0           0  0  0
    0.2167   -1.2750    0.0000 C   0  0  0  0  0  0           0  0  0
   -0.7750   -1.5375    0.0000 C   0  0  0  0  0  0           0  0  0
   -0.3583   -1.1167    0.0000 C   0  0  0  0  0  0           0  0  0
  2  1  1  0     0  0
  3  2  1  0     0  0
  4  1  2  0     0  0
  5  3  1  0     0  0
  6  1  1  0     0  0
  7  1  1  0     0  0
  8  3  2  0     0  0
  9  5  1  0     0  0
 10  5  2  0     0  0
 11  8  1  0     0  0
 12 11  2  0     0  0
 10 12  1  0     0  0
M  END