
  SciTegic12231509382D

 32 36  0  0  1  0            999 V2000
   -0.0875   -1.5250    0.0000 C   0  0
   -0.1833    2.0833    0.0000 C   0  0
    1.3792   -1.5375    0.0000 C   0  0
    0.6542   -0.2167    0.0000 C   0  0  2  0  0  0
    0.6542    1.6000    0.0000 C   0  0  2  0  0  0
   -0.0833   -0.7167    0.0000 C   0  0
    1.3917   -0.7250    0.0000 O   0  0
   -1.0250    1.6000    0.0000 C   0  0
   -1.8708    2.0833    0.0000 C   0  0
   -0.1833    3.0625    0.0000 C   0  0
    1.4917    2.0833    0.0000 N   0  0
   -0.9458   -2.0792    0.0000 C   0  0
   -1.8708    3.0625    0.0000 C   0  0
   -1.0250    3.5500    0.0000 C   0  0
   -0.9208   -0.1250    0.0000 C   0  0
   -3.3458    2.0833    0.0000 O   0  0
   -2.6083    3.4833    0.0000 O   0  0
    2.2542   -2.0167    0.0000 O   0  0
   -1.7958   -1.5792    0.0000 C   0  0
    0.6542    3.5500    0.0000 C   0  0
   -3.3458    2.9833    0.0000 C   0  0
    1.4917    3.0625    0.0000 C   0  0
   -1.7833   -0.6000    0.0000 C   0  0
   -1.0250    0.6208    0.0000 O   0  0
   -0.9458   -3.0917    0.0000 O   0  0
   -2.6833   -2.0542    0.0000 O   0  0
    2.3375    1.6000    0.0000 C   0  0
   -1.9083    0.1583    0.0000 C   0  0
   -1.7958   -3.5917    0.0000 C   0  0
   -3.5333   -1.5417    0.0000 C   0  0
    1.4792    1.1000    0.0000 H   0  0
    0.0625    0.1458    0.0000 H   0  0
  2  5  1  0
  3  1  1  0
  4  6  1  0
  5  4  1  0
  6  1  2  0
  7  3  1  0
  8  2  1  0
  9  8  2  0
 10  2  2  0
 11  5  1  0
 12  1  1  0
 13 14  2  0
 14 10  1  0
 15  6  1  0
 16  9  1  0
 17 13  1  0
 18  3  2  0
 19 12  2  0
 20 22  1  0
 21 16  1  0
 22 11  1  0
 23 19  1  0
 24  8  1  0
 25 12  1  0
 26 19  1  0
 27 11  1  0
 28 24  1  0
 29 25  1  0
 30 26  1  0
  5 31  1  6
  4 32  1  6
  4  7  1  0
 15 23  2  0
 10 20  1  0
  9 13  1  0
 17 21  1  0
M  END