
  SciTegic11201309402D

 83 87  0  0  1  0            999 V2000
    4.9667   -4.4417    0.0000 N   0  0
   -1.0833   -5.4792    0.0000 N   0  0
    4.3542   -5.0000    0.0000 C   0  0
   -0.4958   -6.0667    0.0000 C   0  0
   -1.5875   -3.9292    0.0000 C   0  0
    3.5667   -4.7417    0.0000 C   0  0  2  0  0  0
    3.6917   -3.9292    0.0000 N   0  0
   -1.4583   -3.1042    0.0000 N   0  0
   -1.4583   -4.7417    0.0000 C   0  0  2  0  0  0
    2.6042   -1.7875    0.0000 N   0  0
    0.2375   -1.4125    0.0000 N   0  0
    3.5667   -3.1042    0.0000 C   0  0
   -0.4958   -1.7875    0.0000 C   0  0
    5.9167   -3.3167    0.0000 C   0  0
    1.8667   -1.4125    0.0000 C   0  0
    7.8750   -1.2292    0.0000 N   0  0
    3.1917   -2.3750    0.0000 C   0  0  1  0  0  0
    5.7292   -4.1292    0.0000 C   0  0  2  0  0  0
    7.6917   -2.0375    0.0000 C   0  0
   -1.0833   -2.3750    0.0000 C   0  0  1  0  0  0
    0.2375   -6.4417    0.0000 C   0  0
    6.7125   -3.0792    0.0000 N   0  0
    3.7667   -1.8250    0.0000 C   0  0
    8.6667   -0.9917    0.0000 C   0  0  2  0  0  0
    1.0542   -1.2792    0.0000 C   0  0  2  0  0  0
    5.4625    1.0333    0.0000 C   0  0
    8.8542   -0.1792    0.0000 C   0  0
    2.6042   -6.0667    0.0000 S   0  0
    1.8667   -6.4417    0.0000 S   0  0
    3.5542   -1.0250    0.0000 C   0  0
    1.0542   -6.5667    0.0000 C   0  0
    6.9000   -2.2792    0.0000 C   0  0  1  0  0  0
    1.7667    0.7833    0.0000 C   0  0
    5.6500    1.8375    0.0000 N   0  0
    4.5250   -5.8042    0.0000 O   0  0
   -2.2458   -5.0000    0.0000 C   0  0
   -0.9833   -6.7292    0.0000 O   0  0
   -2.4208   -3.9292    0.0000 O   0  0
    3.1917   -5.4792    0.0000 C   0  0
    5.3167   -2.7542    0.0000 O   0  0
   -0.9833   -1.1167    0.0000 O   0  0
    4.3542   -2.8542    0.0000 O   0  0
    2.1292   -0.6250    0.0000 O   0  0
   -1.7583   -1.8875    0.0000 C   0  0
    8.2917   -2.6000    0.0000 O   0  0
    8.2542    0.3833    0.0000 O   0  0
    4.0542   -0.3750    0.0000 O   0  0
    2.4875    1.1958    0.0000 O   0  0
    1.0542   -0.4542    0.0000 C   0  0
    6.0667    0.4625    0.0000 N   0  0
    4.6667    0.7958    0.0000 N   0  0
    9.6417    0.0583    0.0000 N   0  0
    5.0417   -5.2750    0.0000 C   0  0
    2.7417   -0.9250    0.0000 N   0  0
    1.7667   -0.0417    0.0000 C   0  0
    9.2667   -1.5542    0.0000 C   0  0
   -2.8583   -4.4417    0.0000 C   0  0
    1.0542    1.1958    0.0000 N   0  0
   -1.7583   -5.9667    0.0000 C   0  0
   -4.0958   -3.3375    0.0000 C   0  0
   -1.6708   -1.0667    0.0000 C   0  0
   -3.6458   -4.7000    0.0000 C   0  0
   -2.6875   -3.6375    0.0000 C   0  0
   -4.2708   -4.1417    0.0000 C   0  0
   -3.3083   -3.0792    0.0000 C   0  0
    6.2667   -4.7500    0.0000 C   0  0
   -4.7083   -2.7875    0.0000 O   0  0
    5.8417   -5.4625    0.0000 C   0  0
    1.7667   -6.8750    0.0000 C   0  0
    0.3375   -6.8750    0.0000 C   0  0
    6.2917   -1.7125    0.0000 C   0  0
    5.8792   -0.3417    0.0000 C   0  0
    9.0792   -2.3542    0.0000 C   0  0
   10.0542   -1.3167    0.0000 C   0  0
   -0.9125   -0.7292    0.0000 C   0  0
   -2.3375   -0.5792    0.0000 C   0  0
    6.4792   -0.9042    0.0000 C   0  0
    0.3375   -7.7000    0.0000 C   0  0
    1.7667   -7.7000    0.0000 C   0  0
   -2.2500    0.2458    0.0000 C   0  0
   -0.8250    0.0958    0.0000 C   0  0
   -1.4958    0.5833    0.0000 C   0  0
    1.0542   -8.1125    0.0000 C   0  0
  2  4  1  0
  3  1  1  0
  4 21  1  0
  5  9  1  0
  6  3  1  1
  7  6  1  0
  8  5  1  0
  9  2  1  0
 10 17  1  0
 11 25  1  0
 12  7  1  0
 13 11  1  0
 18 14  1  6
 15 10  1  0
 16 19  1  0
 17 12  1  0
 18  1  1  0
 19 32  1  0
 20 13  1  0
 21 31  1  0
 22 14  1  0
 17 23  1  6
 24 16  1  6
 25 15  1  0
 26 50  2  0
 27 24  1  0
 28 39  1  0
 29 28  1  0
 30 23  1  0
 31 29  1  0
 32 22  1  1
 33 55  1  0
 34 26  1  0
 35  3  2  0
  9 36  1  1
 37  4  2  0
 38  5  2  0
  6 39  1  0
 40 14  2  0
 41 13  2  0
 42 12  2  0
 43 15  2  0
 20 44  1  6
 45 19  2  0
 46 27  2  0
 47 30  2  0
 48 33  2  0
 25 49  1  1
 50 72  1  0
 51 26  1  0
 52 27  1  0
 53  1  1  0
 54 30  1  0
 55 49  1  0
 24 56  1  0
 57 36  1  0
 58 33  1  0
 59  2  1  0
 60 65  2  0
 61 44  1  0
 62 57  1  0
 63 57  2  0
 64 62  2  0
 65 63  1  0
 18 66  1  0
 67 60  1  0
 68 53  1  0
 69 31  1  0
 70 31  1  0
 32 71  1  0
 72 77  1  0
 73 56  1  0
 74 56  1  0
 75 61  2  0
 76 61  1  0
 77 71  1  0
 78 70  1  0
 79 69  1  0
 80 76  2  0
 81 75  1  0
 82 80  1  0
 83 78  1  0
 66 68  1  0
 83 79  1  0
 20  8  1  0
 60 64  1  0
 81 82  2  0
M  END