
          02060813472D 1   1.00000     0.00000     0

 35 39  0     1  0            999 V2000
    3.2283  -23.6629    0.0000 C   0  0  0  0  0  0           0  0  0
    3.2272  -24.4905    0.0000 C   0  0  0  0  0  0           0  0  0
    3.9422  -24.9034    0.0000 C   0  0  0  0  0  0           0  0  0
    3.9404  -23.2500    0.0000 C   0  0  0  0  0  0           0  0  0
    4.6559  -23.6593    0.0000 C   0  0  0  0  0  0           0  0  0
    4.6566  -24.4863    0.0000 C   0  0  0  0  0  0           0  0  0
    5.3721  -24.8974    0.0000 N   0  0  0  0  0  0           0  0  0
    6.0873  -24.4825    0.0000 C   0  0  0  0  0  0           0  0  0
    6.0825  -23.6523    0.0000 N   0  0  0  0  0  0           0  0  0
    5.3665  -23.2450    0.0000 C   0  0  0  0  0  0           0  0  0
    6.8011  -24.8924    0.0000 N   0  0  3  0  0  0           0  0  0
    8.2299  -25.7163    0.0000 N   0  0  3  0  0  0           0  0  0
    8.2287  -24.8903    0.0000 C   0  0  0  0  0  0           0  0  0
    7.5120  -24.4760    0.0000 C   0  0  0  0  0  0           0  0  0
    7.5145  -26.1282    0.0000 C   0  0  2  0  0  0           0  0  0
    6.7999  -25.7158    0.0000 C   0  0  1  0  0  0           0  0  0
    6.0894  -26.1261    0.0000 C   0  0  0  0  0  0           0  0  0
    6.0872  -26.9506    0.0000 C   0  0  0  0  0  0           0  0  0
    6.8017  -27.3630    0.0000 C   0  0  0  0  0  0           0  0  0
    7.5185  -26.9510    0.0000 C   0  0  0  0  0  0           0  0  0
    8.2266  -26.5385    0.0000 H   0  0  0  0  0  0           0  0  0
    6.0804  -25.3008    0.0000 H   0  0  0  0  0  0           0  0  0
    8.9446  -26.1289    0.0000 C   0  0  0  0  0  0           0  0  0
    8.9447  -26.9541    0.0000 O   0  0  0  0  0  0           0  0  0
    9.6595  -25.7158    0.0000 C   0  0  0  0  0  0           0  0  0
    2.5137  -23.2505    0.0000 O   0  0  0  0  0  0           0  0  0
    2.5123  -24.9025    0.0000 O   0  0  0  0  0  0           0  0  0
    2.5135  -22.4254    0.0000 C   0  0  0  0  0  0           0  0  0
    2.5116  -25.7276    0.0000 C   0  0  0  0  0  0           0  0  0
    5.3620  -22.4199    0.0000 N   0  0  0  0  0  0           0  0  0
   10.3725  -26.1295    0.0000 C   0  0  0  0  0  0           0  0  0
   11.0869  -25.7171    0.0000 C   0  0  0  0  0  0           0  0  0
   11.0871  -24.8906    0.0000 C   0  0  0  0  0  0           0  0  0
   10.3668  -24.4781    0.0000 C   0  0  0  0  0  0           0  0  0
    9.6554  -24.8929    0.0000 C   0  0  0  0  0  0           0  0  0
  7  8  2  0     0  0
  5  4  2  0     0  0
  8  9  1  0     0  0
  4  1  1  0     0  0
 15 20  1  0     0  0
 16 17  1  0     0  0
 17 18  1  0     0  0
 18 19  1  0     0  0
 19 20  1  0     0  0
  9 10  2  0     0  0
 15 21  1  6     0  0
 10  5  1  0     0  0
 16 22  1  6     0  0
 11 16  1  0     0  0
 12 23  1  0     0  0
 23 24  2  0     0  0
  2  3  1  0     0  0
 23 25  1  0     0  0
  5  6  1  0     0  0
  1 26  1  0     0  0
  3  6  2  0     0  0
  2 27  1  0     0  0
 11 14  1  0     0  0
 26 28  1  0     0  0
 15 12  1  0     0  0
 27 29  1  0     0  0
 12 13  1  0     0  0
 10 30  1  0     0  0
 13 14  1  0     0  0
 25 31  2  0     0  0
  8 11  1  0     0  0
 31 32  1  0     0  0
 15 16  1  0     0  0
 32 33  2  0     0  0
  6  7  1  0     0  0
 33 34  1  0     0  0
  1  2  2  0     0  0
 34 35  2  0     0  0
 35 25  1  0     0  0
M  END