
  SciTegic06051313522D

 28 31  0  0  0  0            999 V2000
   12.0609   -5.6546    0.0000 C   0  0
   12.4734   -6.3691    0.0000 C   0  0
   12.0609   -7.0835    0.0000 C   0  0
   12.4734   -7.7980    0.0000 C   0  0
   13.2984   -7.7980    0.0000 C   0  0
   13.7109   -7.0835    0.0000 C   0  0
   13.2984   -6.3691    0.0000 C   0  0
   12.4734   -4.9401    0.0000 O   0  0
   11.2359   -5.6546    0.0000 N   0  0
   10.8234   -6.3691    0.0000 C   0  0
   11.2359   -7.0835    0.0000 N   0  0
    9.5859   -8.5125    0.0000 C   0  0
    9.9984   -7.7980    0.0000 C   0  0
   10.8234   -7.7980    0.0000 C   0  0
   11.2359   -8.5125    0.0000 C   0  0
   10.8234   -9.2269    0.0000 C   0  0
    9.9984   -9.2269    0.0000 N   0  0
    8.6927   -7.5205    0.0000 C   0  0
    8.7789   -8.3409    0.0000 N   0  0
    9.4463   -7.1849    0.0000 N   0  0
    7.9782   -7.1080    0.0000 C   0  0
    7.2637   -7.5205    0.0000 C   0  0
    6.5492   -7.1080    0.0000 C   0  0
    6.5492   -6.2830    0.0000 C   0  0
    7.2637   -5.8705    0.0000 C   0  0
    7.9782   -6.2830    0.0000 C   0  0
    5.8348   -5.8705    0.0000 F   0  0
   12.0609   -8.5125    0.0000 Br  0  0
  1  2  1  0
  2  3  1  0
  3  4  2  0
  4  5  1  0
  5  6  2  0
  6  7  1  0
  2  7  2  0
  1  8  2  0
  1  9  1  0
  9 10  1  0
 12 13  1  0
 13 14  2  0
 14 15  1  0
 15 16  2  0
 16 17  1  0
 12 17  2  0
 18 19  1  0
 18 20  2  0
 12 19  1  0
 13 20  1  0
 21 22  1  0
 22 23  2  0
 23 24  1  0
 24 25  2  0
 25 26  1  0
 21 26  2  0
 24 27  1  0
 18 21  1  0
 15 28  1  0
 11 14  1  0
  3 11  1  0
M  END