
  CDK    9/16/09,9:59

 19 20  0  0  0  0  0  0  0  0999 V2000
    9.1847  -15.5042    0.0000 C   0  0  0  0  0  0  0  0  0  0  0  0
    9.1859  -14.1690    0.0000 N   0  0  0  0  0  0  0  0  0  0  0  0
    8.7037  -14.8418    0.0000 C   0  0  0  0  0  0  0  0  0  0  0  0
    9.9722  -14.4252    0.0000 C   0  0  0  0  0  0  0  0  0  0  0  0
    9.9701  -15.2502    0.0000 C   0  0  0  0  0  0  0  0  0  0  0  0
   10.6867  -15.6669    0.0000 N   0  0  0  0  0  0  0  0  0  0  0  0
   11.4057  -15.2514    0.0000 C   0  0  0  0  0  0  0  0  0  0  0  0
   11.4037  -14.4232    0.0000 N   0  0  0  0  0  0  0  0  0  0  0  0
   10.6867  -14.0103    0.0000 C   0  0  0  0  0  0  0  0  0  0  0  0
   10.6852  -13.1833    0.0000 O   0  0  0  0  0  0  0  0  0  0  0  0
    8.7666  -16.2207    0.0000 C   0  0  0  0  0  0  0  0  0  0  0  0
    9.1777  -16.9390    0.0000 N   0  0  0  0  0  0  0  0  0  0  0  0
    8.7739  -19.0708    0.0000 C   0  0  0  0  0  0  0  0  0  0  0  0
    9.1816  -18.3607    0.0000 C   0  0  0  0  0  0  0  0  0  0  0  0
    8.7685  -17.6508    0.0000 C   0  0  0  0  0  0  0  0  0  0  0  0
    9.9996  -18.3584    0.0000 O   0  0  0  0  0  0  0  0  0  0  0  0
    9.1848  -19.7858    0.0000 C   0  0  0  0  0  0  0  0  0  0  0  0
    8.7693  -20.4987    0.0000 O   0  0  0  0  0  0  0  0  0  0  0  0
    7.9514  -19.0767    0.0000 O   0  0  0  0  0  0  0  0  0  0  0  0
  9  4  1  0  0  0  0 
  1  5  1  0  0  0  0 
  9 10  2  0  0  0  0 
  4  5  2  0  0  0  0 
  1 11  1  0  0  0  0 
  4  2  1  0  0  0  0 
 11 12  1  0  0  0  0 
  5  6  1  0  0  0  0 
  2  3  1  0  0  0  0 
  6  7  2  0  0  0  0 
 13 14  1  0  0  0  0 
 14 15  1  0  0  0  0 
 15 12  1  0  0  0  0 
  3  1  2  0  0  0  0 
 14 16  1  0  0  0  0 
  7  8  1  0  0  0  0 
 13 17  1  0  0  0  0 
 17 18  1  0  0  0  0 
  8  9  1  0  0  0  0 
 13 19  1  0  0  0  0 
M  END