
  SciTegic06271217572D

 30 32  0  0  0  0            999 V2000
    3.7412   -6.6985    0.0000 S   0  0
    4.1535   -7.4131    0.0000 O   0  0
    4.5662   -6.6987    0.0000 O   0  0
    3.0278   -4.6333    0.0000 C   0  0
    3.0266   -5.4607    0.0000 C   0  0
    3.7414   -5.8735    0.0000 C   0  0
    4.4579   -5.4602    0.0000 C   0  0
    4.4550   -4.6297    0.0000 C   0  0
    3.7396   -4.2205    0.0000 C   0  0
    5.1679   -4.2145    0.0000 C   0  0
    5.8839   -4.6243    0.0000 C   0  0
    5.1648   -3.3895    0.0000 O   0  0
    6.5969   -4.2091    0.0000 S   0  0
    7.3129   -4.6189    0.0000 C   0  0
    7.3129   -5.4428    0.0000 N   0  0
    8.0280   -5.8525    0.0000 C   0  0
    8.7419   -5.4372    0.0000 C   0  0
    8.7362   -4.6080    0.0000 C   0  0
    8.0204   -4.2020    0.0000 N   0  0
    2.3118   -5.8726    0.0000 Cl  0  0
    3.0267   -7.1109    0.0000 N   0  0
    9.4585   -5.8461    0.0000 C   0  0
    9.4627   -6.6711    0.0000 C   0  0
    8.7481   -7.0851    0.0000 C   0  0
    8.7520   -7.9093    0.0000 C   0  0
    9.4691   -8.3190    0.0000 C   0  0
   10.1838   -7.8984    0.0000 C   0  0
   10.1764   -7.0756    0.0000 C   0  0
    9.4476   -4.1903    0.0000 C   0  0
    8.0307   -6.6775    0.0000 O   0  0
 15 16  1  0
  8  9  2  0
 16 17  1  0
  9  4  1  0
 17 18  2  0
  1  3  2  0
 18 19  1  0
 19 14  2  0
  8 10  1  0
  5 20  1  0
  6  1  1  0
  5  6  1  0
  1 21  1  0
 10 11  1  0
 10 12  2  0
 17 22  1  0
  6  7  2  0
 22 23  1  0
 11 13  1  0
 23 24  2  0
  2  1  2  0
 24 25  1  0
 13 14  1  0
 25 26  2  0
  7  8  1  0
 26 27  1  0
 14 15  1  0
 27 28  2  0
 28 23  1  0
 18 29  1  0
  4  5  2  0
 16 30  2  0
M  END