
  SciTegic09081514192D

 31 34  0  0  0  0            999 V2000
   13.9181   -8.9815    0.0000 C   0  0
   13.1763  -10.2853    0.0000 C   0  0
   11.6763  -10.2947    0.0000 C   0  0
   10.9181   -9.0005    0.0000 C   0  0
   11.6599   -7.6966    0.0000 C   0  0
   13.1599   -7.6872    0.0000 C   0  0
   10.8992   -6.4029    0.0000 N   0  0
   11.6389   -5.0980    0.0000 C   0  0
   10.8787   -3.8049    0.0000 C   0  0
    9.3787   -3.8167    0.0000 N   0  0
    8.6390   -5.1217    0.0000 C   0  0
    9.3993   -6.4148    0.0000 C   0  0
   13.9048   -6.3843    0.0000 O   0  0
   15.1048   -6.3785    0.0000 C   0  0
    8.6154   -2.5245    0.0000 C   0  0
    7.1146   -2.5384    0.0000 C   0  0
    6.3513   -1.2462    0.0000 C   0  0
    4.8506   -1.2602    0.0000 N   0  0
    4.0872    0.0320    0.0000 C   0  0
    2.5889    0.0182    0.0000 C   0  0
    4.6772    1.0770    0.0000 O   0  0
    1.7138    1.2033    0.0000 N   0  0
    1.7138   -1.2033    0.0000 C   0  0
    0.2917   -0.7475    0.0000 C   0  0
    0.2917    0.7475    0.0000 C   0  0
   -1.0028    1.5132    0.0000 C   0  0
   -2.3155    0.7475    0.0000 C   0  0
   -2.3155   -0.7475    0.0000 C   0  0
   -1.0028   -1.5132    0.0000 C   0  0
   -3.6187   -1.4919    0.0000 O   0  0
   -3.6251   -2.6919    0.0000 C   0  0
  1  2  2  0
  2  3  1  0
  3  4  2  0
  4  5  1  0
  5  6  2  0
  6  1  1  0
  7  8  1  0
  7 12  1  0
  8  9  1  0
  9 10  1  0
 10 11  1  0
 11 12  1  0
  5  7  1  0
  6 13  1  0
 13 14  1  0
 10 15  1  0
 15 16  1  0
 16 17  1  0
 17 18  1  0
 18 19  1  0
 19 20  1  0
 19 21  2  0
 20 22  1  0
 22 25  1  0
 24 23  1  0
 23 20  2  0
 24 25  2  0
 25 26  1  0
 26 27  2  0
 27 28  1  0
 28 29  2  0
 29 24  1  0
 28 30  1  0
 30 31  1  0
M  END