
          11280715122D 1   1.00000     0.00000     0

  7  7  0     0  0            999 V2000
    5.8250   -6.2667    0.0000 C   0  0  0  0  0  0           0  0  0
    6.3500   -6.5667    0.0000 N   0  0  0  0  0  0           0  0  0
    5.3042   -6.5750    0.0000 N   0  0  0  0  0  0           0  0  0
    5.8250   -7.4750    0.0000 N   0  0  0  0  0  0           0  0  0
    5.3042   -7.1750    0.0000 C   0  0  0  0  0  0           0  0  0
    6.3500   -7.1750    0.0000 C   0  0  0  0  0  0           0  0  0
    5.8167   -5.6667    0.0000 N   0  0  0  0  0  0           0  0  0
  2  1  2  0     0  0
  3  1  1  0     0  0
  4  5  1  0     0  0
  5  3  2  0     0  0
  6  2  1  0     0  0
  7  1  1  0     0  0
  4  6  2  0     0  0
M  END