
          03140815512D 1   1.00000     0.00000     0

 18 19  0     0  0            999 V2000
   17.7917    0.8875    0.0000 N   0  0  3  0  0  0           0  0  0
   17.7917    0.0625    0.0000 C   0  0  0  0  0  0           0  0  0
   18.5037   -0.3458    0.0000 C   0  0  0  0  0  0           0  0  0
   19.2157    0.0625    0.0000 O   0  0  0  0  0  0           0  0  0
   19.2157    0.8875    0.0000 C   0  0  0  0  0  0           0  0  0
   18.5037    1.3042    0.0000 C   0  0  0  0  0  0           0  0  0
   17.0760    1.2979    0.0000 C   0  0  0  0  0  0           0  0  0
   17.0736    2.1229    0.0000 O   0  0  0  0  0  0           0  0  0
   16.3627    0.8833    0.0000 C   0  0  0  0  0  0           0  0  0
   15.6471    1.2937    0.0000 O   0  0  0  0  0  0           0  0  0
   14.9338    0.8791    0.0000 C   0  0  0  0  0  0           0  0  0
   14.2188    1.2929    0.0000 C   0  0  0  0  0  0           0  0  0
   13.5061    0.8790    0.0000 C   0  0  0  0  0  0           0  0  0
   13.5080    0.0531    0.0000 C   0  0  0  0  0  0           0  0  0
   14.2287   -0.3571    0.0000 C   0  0  0  0  0  0           0  0  0
   14.9386    0.0591    0.0000 C   0  0  0  0  0  0           0  0  0
   12.7953   -0.3625    0.0000 C   0  0  0  0  0  0           0  0  0
   12.0791    0.0470    0.0000 C   0  0  0  0  0  0           0  0  0
  7  9  1  0     0  0
  2  3  1  0     0  0
  9 10  1  0     0  0
  3  4  1  0     0  0
 10 11  1  0     0  0
  4  5  1  0     0  0
 11 12  2  0     0  0
  5  6  1  0     0  0
 12 13  1  0     0  0
 13 14  2  0     0  0
  1  7  1  0     0  0
 14 15  1  0     0  0
  1  2  1  0     0  0
 15 16  2  0     0  0
 16 11  1  0     0  0
  7  8  2  0     0  0
 14 17  1  0     0  0
  1  6  1  0     0  0
 17 18  1  0     0  0
M  END