
  Mrv0541 05271413482D          

 18 18  0  0  0  0            999 V2000
   18.0401  -28.1601    0.0000 C   0  0  0  0  0  0  0  0  0  0  0  0
   13.7849  -28.1683    0.0000 C   0  0  0  0  0  0  0  0  0  0  0  0
   17.3261  -28.5687    0.0000 C   0  0  0  0  0  0  0  0  0  0  0  0
   13.7849  -27.3429    0.0000 C   0  0  0  0  0  0  0  0  0  0  0  0
   13.0792  -28.5769    0.0000 C   0  0  0  0  0  0  0  0  0  0  0  0
   18.0401  -27.3429    0.0000 O   0  0  0  0  0  0  0  0  0  0  0  0
   13.0751  -26.9343    0.0000 C   0  0  0  0  0  0  0  0  0  0  0  0
   18.7459  -28.5687    0.0000 O   0  0  0  0  0  0  0  0  0  0  0  0
   12.3734  -28.1683    0.0000 C   0  0  0  0  0  0  0  0  0  0  0  0
   12.3734  -27.3511    0.0000 C   0  0  0  0  0  0  0  0  0  0  0  0
   14.4990  -28.5687    0.0000 O   0  0  0  0  0  0  0  0  0  0  0  0
   16.6203  -28.1601    0.0000 C   0  0  0  0  0  0  0  0  0  0  0  0
   16.9175  -29.2744    0.0000 C   0  0  0  0  0  0  0  0  0  0  0  0
   17.7347  -29.2744    0.0000 C   0  0  0  0  0  0  0  0  0  0  0  0
   14.4907  -26.9302    0.0000 C   0  0  0  0  0  0  0  0  0  0  0  0
   15.2047  -28.1683    0.0000 C   0  0  0  0  0  0  0  0  0  0  0  0
   11.6635  -28.5769    0.0000 C   0  0  0  0  0  0  0  0  0  0  0  0
   15.9146  -28.5687    0.0000 C   0  0  0  0  0  0  0  0  0  0  0  0
  2 11  1  0  0  0  0
  3  1  1  0  0  0  0
  4  2  1  0  0  0  0
  5  2  2  0  0  0  0
  6  1  2  0  0  0  0
  7  4  2  0  0  0  0
  8  1  1  0  0  0  0
  9  5  1  0  0  0  0
 10  9  2  0  0  0  0
 11 16  1  0  0  0  0
 12  3  1  0  0  0  0
 13  3  1  0  0  0  0
 14  3  1  0  0  0  0
 15  4  1  0  0  0  0
 16 18  1  0  0  0  0
 17  9  1  0  0  0  0
 18 12  1  0  0  0  0
  7 10  1  0  0  0  0
M  END