
  Mrv0541 05211314572D          

 16 14  0  0  0  0            999 V2000
    2.0126   -0.7541    0.0000 N   0  0  0  0  0  0  0  0  0  0  0  0
   -2.3605    0.0664    0.0000 C   0  0  0  0  0  0  0  0  0  0  0  0
    1.9264    0.0664    0.0000 C   0  0  0  0  0  0  0  0  0  0  0  0
    3.2321   -0.2111    0.0000 N   0  0  0  0  0  0  0  0  0  0  0  0
    2.8196   -0.9256    0.0000 C   0  0  0  0  0  0  0  0  0  0  0  0
   -2.3605   -0.7586    0.0000 N   0  0  0  0  0  0  0  0  0  0  0  0
    2.6800    0.4019    0.0000 C   0  0  0  0  0  0  0  0  0  0  0  0
   -3.0749    0.4789    0.0000 N   0  0  0  0  0  0  0  0  0  0  0  0
   -1.6460    0.4789    0.0000 N   0  0  0  0  0  0  0  0  0  0  0  0
    0.4974    0.0664    0.0000 S   0  0  0  0  0  0  0  0  0  0  0  0
    5.4713    0.0000    0.0000 Cl  0  0  0  0  0  0  0  0  0  0  0  0
    0.0000   -2.5756    0.0000 Cl  0  0  0  0  0  0  0  0  0  0  0  0
    1.2119    0.4789    0.0000 C   0  0  0  0  0  0  0  0  0  0  0  0
   -0.9315    0.0664    0.0000 C   0  0  0  0  0  0  0  0  0  0  0  0
   -3.7894    0.0664    0.0000 C   0  0  0  0  0  0  0  0  0  0  0  0
   -0.2171    0.4789    0.0000 C   0  0  0  0  0  0  0  0  0  0  0  0
  1  3  1  0  0  0  0
  1  5  2  0  0  0  0
  4  5  1  0  0  0  0
  2  6  1  0  0  0  0
  3  7  2  0  0  0  0
  4  7  1  0  0  0  0
  2  8  2  0  0  0  0
  2  9  1  0  0  0  0
  3 13  1  0  0  0  0
 10 13  1  0  0  0  0
  9 14  1  0  0  0  0
  8 15  1  0  0  0  0
 10 16  1  0  0  0  0
 14 16  1  0  0  0  0
M  END