
  Mrv0541 05211314572D          

 28 29  0  0  0  0            999 V2000
   -1.9640    1.5452    0.0000 C   0  0  0  0  0  0  0  0  0  0  0  0
   -2.4490    0.8777    0.0000 N   0  0  0  0  0  0  0  0  0  0  0  0
   -3.2694    0.9640    0.0000 C   0  0  0  0  0  0  0  0  0  0  0  0
   -3.6050    1.7177    0.0000 C   0  0  0  0  0  0  0  0  0  0  0  0
   -3.1201    2.3851    0.0000 N   0  0  0  0  0  0  0  0  0  0  0  0
   -2.2996    2.2989    0.0000 C   0  0  0  0  0  0  0  0  0  0  0  0
   -2.1134    0.1241    0.0000 C   0  0  0  0  0  0  0  0  0  0  0  0
   -1.3064   -0.0475    0.0000 S   0  0  0  0  0  0  0  0  0  0  0  0
   -1.2202   -0.8679    0.0000 C   0  0  0  0  0  0  0  0  0  0  0  0
   -1.9739   -1.2035    0.0000 C   0  0  0  0  0  0  0  0  0  0  0  0
   -2.5259   -0.5904    0.0000 N   0  0  0  0  0  0  0  0  0  0  0  0
   -0.5057   -1.2804    0.0000 C   0  0  0  0  0  0  0  0  0  0  0  0
    0.2088   -0.8679    0.0000 C   0  0  0  0  0  0  0  0  0  0  0  0
    0.9232   -1.2804    0.0000 N   0  0  0  0  0  0  0  0  0  0  0  0
   -3.4556    3.1388    0.0000 C   0  0  0  0  0  0  0  0  0  0  0  0
   -2.9707    3.8062    0.0000 C   0  0  0  0  0  0  0  0  0  0  0  0
   -3.3063    4.5599    0.0000 C   0  0  0  0  0  0  0  0  0  0  0  0
    0.9232   -2.1054    0.0000 C   0  0  0  0  0  0  0  0  0  0  0  0
    1.6377   -0.8679    0.0000 C   0  0  0  0  0  0  0  0  0  0  0  0
    2.3522   -1.2804    0.0000 C   0  0  0  0  0  0  0  0  0  0  0  0
    3.0666   -0.8679    0.0000 C   0  0  0  0  0  0  0  0  0  0  0  0
    3.7811   -1.2804    0.0000 C   0  0  0  0  0  0  0  0  0  0  0  0
    4.4956   -0.8679    0.0000 C   0  0  0  0  0  0  0  0  0  0  0  0
    5.2100   -1.2804    0.0000 C   0  0  0  0  0  0  0  0  0  0  0  0
    5.2100   -2.1054    0.0000 C   0  0  0  0  0  0  0  0  0  0  0  0
    4.4956   -2.5179    0.0000 C   0  0  0  0  0  0  0  0  0  0  0  0
    3.7811   -2.1054    0.0000 C   0  0  0  0  0  0  0  0  0  0  0  0
    7.4493    0.0000    0.0000 Br  0  0  0  0  0  0  0  0  0  0  0  0
 12 13  1  0  0  0  0
 13 14  1  0  0  0  0
  2  7  1  0  0  0  0
  5 15  1  0  0  0  0
  7  8  1  0  0  0  0
 15 16  1  0  0  0  0
  1  2  1  0  0  0  0
 16 17  1  0  0  0  0
  1  6  1  0  0  0  0
 14 18  1  0  0  0  0
  2  3  1  0  0  0  0
 14 19  1  0  0  0  0
  3  4  1  0  0  0  0
 19 20  1  0  0  0  0
  8  9  1  0  0  0  0
 20 21  1  0  0  0  0
  9 10  2  0  0  0  0
 21 22  1  0  0  0  0
 10 11  1  0  0  0  0
 22 23  2  0  0  0  0
 11  7  2  0  0  0  0
 23 24  1  0  0  0  0
  4  5  1  0  0  0  0
 24 25  2  0  0  0  0
  9 12  1  0  0  0  0
 25 26  1  0  0  0  0
  5  6  1  0  0  0  0
 26 27  2  0  0  0  0
 27 22  1  0  0  0  0
M  END