
  SciTegic06281210282D

 30 33  0  0  0  0            999 V2000
   -1.6000  -10.8083    0.0000 O   0  0
   -1.5958  -11.6333    0.0000 S   0  0
   -0.8834  -11.2172    0.0000 O   0  0
   -4.8680  -12.8477    0.0000 C   0  0
   -4.8680  -13.6727    0.0000 C   0  0
   -4.1536  -14.0852    0.0000 C   0  0
   -3.4391  -13.6727    0.0000 C   0  0
   -3.4391  -12.8477    0.0000 C   0  0
   -4.1536  -12.4352    0.0000 C   0  0
   -2.6555  -13.9287    0.0000 N   0  0
   -2.1696  -13.2602    0.0000 N   0  0
   -2.6545  -12.5928    0.0000 C   0  0
   -4.1536  -11.6102    0.0000 O   0  0
   -4.8680  -11.1977    0.0000 C   0  0
   -2.6542  -14.7537    0.0000 C   0  0
   -3.3681  -15.1673    0.0000 C   0  0
   -4.0832  -14.7559    0.0000 C   0  0
   -4.7971  -15.1695    0.0000 C   0  0
   -4.7958  -15.9945    0.0000 C   0  0
   -4.0807  -16.4059    0.0000 C   0  0
   -3.3668  -15.9923    0.0000 C   0  0
   -2.3995  -11.8082    0.0000 N   0  0
   -1.0406  -12.2498    0.0000 C   0  0
   -1.2121  -13.0554    0.0000 C   0  0
   -0.4976  -13.4680    0.0000 C   0  0
    0.1155  -12.9159    0.0000 C   0  0
   -0.2201  -12.1623    0.0000 S   0  0
    0.9225  -13.0874    0.0000 Cl  0  0
   -4.0795  -17.2309    0.0000 C   0  0
   -4.7934  -17.6444    0.0000 O   0  0
  7 10  1  0
 10 11  1  0
 11 12  2  0
 12  8  1  0
  9 13  1  0
 13 14  1  0
 10 15  1  0
 15 16  1  0
 16 17  2  0
 17 18  1  0
 18 19  2  0
 19 20  1  0
 20 21  2  0
 21 16  1  0
 12 22  1  0
 22  2  1  0
  2  1  2  0
  2 23  1  0
 23 24  2  0
  3  2  2  0
  4  5  2  0
  5  6  1  0
  6  7  2  0
 24 25  1  0
 25 26  2  0
 26 27  1  0
 27 23  1  0
  7  8  1  0
 26 28  1  0
  8  9  2  0
 20 29  1  0
  9  4  1  0
 29 30  1  0
M  END