
  SciTegic01061414252D

 38 42  0  0  0  0            999 V2000
   11.7118   -8.3965    0.0000 O   0  0
   11.4766   -9.1791    0.0000 N   0  0
   10.6596   -9.1973    0.0000 C   0  0
   10.3899   -8.4259    0.0000 C   0  0
   11.0402   -7.9310    0.0000 C   0  0
   10.1941   -9.8689    0.0000 C   0  0
    9.3797   -9.8015    0.0000 O   0  0
   10.5429  -10.6079    0.0000 N   0  0
   11.0221   -7.1140    0.0000 C   0  0
   10.3055   -6.7212    0.0000 C   0  0
   10.2873   -5.9042    0.0000 C   0  0
   10.9858   -5.4800    0.0000 C   0  0
   11.7024   -5.8728    0.0000 C   0  0
   11.7205   -6.6898    0.0000 C   0  0
   12.4371   -7.0826    0.0000 O   0  0
   10.9677   -4.6630    0.0000 O   0  0
    9.6070   -7.1454    0.0000 O   0  0
    8.8904   -6.7526    0.0000 C   0  0
    8.1919   -7.1768    0.0000 C   0  0
    7.4753   -6.7840    0.0000 C   0  0
    7.4572   -5.9670    0.0000 C   0  0
    8.1557   -5.5428    0.0000 C   0  0
    8.8723   -5.9356    0.0000 C   0  0
    6.7406   -5.5742    0.0000 N   0  0
    6.0421   -5.9984    0.0000 C   0  0
    6.7225   -4.7572    0.0000 C   0  0
    9.1463  -12.6227    0.0000 N   0  0
    8.7974  -11.8837    0.0000 C   0  0
    9.2630  -11.2121    0.0000 C   0  0
   10.0774  -11.2795    0.0000 C   0  0
   10.4262  -12.0185    0.0000 C   0  0
    9.9607  -12.6901    0.0000 C   0  0
    8.6807  -13.2943    0.0000 C   0  0
    9.0296  -14.0333    0.0000 C   0  0
    8.5641  -14.7049    0.0000 C   0  0
    7.7496  -14.6376    0.0000 C   0  0
    7.4008  -13.8986    0.0000 C   0  0
    7.8663  -13.2270    0.0000 C   0  0
  1  2  1  0
  2  3  2  0
  3  4  1  0
  4  5  2  0
  1  5  1  0
  6  7  2  0
  6  8  1  0
  3  6  1  0
  9 10  1  0
 10 11  2  0
 11 12  1  0
 12 13  2  0
 13 14  1  0
  9 14  2  0
 14 15  1  0
 12 16  1  0
 18 19  1  0
 19 20  2  0
 20 21  1  0
 21 22  2  0
 22 23  1  0
 18 23  2  0
 17 18  1  0
 24 25  1  0
 24 26  1  0
 21 24  1  0
 10 17  1  0
  5  9  1  0
 27 28  1  0
 28 29  1  0
 29 30  1  0
 30 31  1  0
 31 32  1  0
 27 32  1  0
 33 34  1  0
 34 35  1  0
 35 36  1  0
 36 37  1  0
 37 38  1  0
 33 38  1  0
 27 33  1  0
  8 30  1  0
M  END