
  SciTegic12231509382D

 22 24  0  0  0  0            999 V2000
   -0.9743    0.5250    0.0000 C   0  0
   -0.9743    1.3500    0.0000 C   0  0
   -1.6887    1.7625    0.0000 C   0  0
   -2.4032    1.3500    0.0000 C   0  0
   -2.4032    0.5250    0.0000 C   0  0
   -1.6887    0.1125    0.0000 C   0  0
   -0.2598    0.1125    0.0000 C   0  0
    2.5981    0.1125    0.0000 C   0  0
    2.5981   -0.7125    0.0000 C   0  0
    1.8836   -1.1250    0.0000 C   0  0
    1.8836    0.5250    0.0000 C   0  0
    1.1691    0.1125    0.0000 C   0  0
    1.1691   -0.7125    0.0000 C   0  0
    0.4547   -1.1250    0.0000 C   0  0
   -0.2598   -0.7125    0.0000 C   0  0
    0.4547    0.5250    0.0000 O   0  0
    0.4547   -1.9500    0.0000 O   0  0
   -3.1177    1.7625    0.0000 O   0  0
    3.3125    0.5250    0.0000 O   0  0
    1.8836   -1.9500    0.0000 O   0  0
   -0.9743   -1.1250    0.0000 O   0  0
   -3.1177    0.1125    0.0000 O   0  0
 11  8  1  0
 12 13  1  0
  5  6  2  0
  6  1  1  0
  1  2  2  0
  3  4  2  0
 12 16  1  0
 13 14  1  0
 14 15  1  0
 15  7  2  0
  7 16  1  0
  8  9  2  0
 14 17  2  0
  7  1  1  0
  4  5  1  0
  4 18  1  0
  9 10  1  0
  8 19  1  0
 10 13  2  0
 10 20  1  0
  2  3  1  0
 15 21  1  0
 12 11  2  0
  5 22  1  0
M  END