
  Mrv0541 04051115152D          

 29 31  0  0  0  0            999 V2000
   -3.1727   -3.1364    0.0000 N   0  0  0  0  0  0  0  0  0  0  0  0
   -2.4190   -3.4719    0.0000 C   0  0  1  0  0  0  0  0  0  0  0  0
   -2.3328   -4.2924    0.0000 C   0  0  0  0  0  0  0  0  0  0  0  0
   -3.0002   -4.7773    0.0000 S   0  0  0  0  0  0  0  0  0  0  0  0
   -1.7516   -2.9870    0.0000 C   0  0  0  0  0  0  0  0  0  0  0  0
   -0.9979   -3.3226    0.0000 O   0  0  0  0  0  0  0  0  0  0  0  0
   -1.8378   -2.1665    0.0000 N   0  0  0  0  0  0  0  0  0  0  0  0
   -1.1704   -1.6816    0.0000 S   0  0  0  0  0  0  0  0  0  0  0  0
   -0.6854   -2.3490    0.0000 O   0  0  0  0  0  0  0  0  0  0  0  0
   -1.6553   -1.0142    0.0000 O   0  0  0  0  0  0  0  0  0  0  0  0
   -0.5029   -1.1967    0.0000 O   0  0  0  0  0  0  0  0  0  0  0  0
   -0.5891   -0.3762    0.0000 C   0  0  0  0  0  0  0  0  0  0  0  0
    0.0783    0.1087    0.0000 C   0  0  1  0  0  0  0  0  0  0  0  0
    0.0783    0.9337    0.0000 O   0  0  0  0  0  0  0  0  0  0  0  0
    0.8629   -0.1462    0.0000 C   0  0  1  0  0  0  0  0  0  0  0  0
    1.1179   -0.9308    0.0000 O   0  0  0  0  0  0  0  0  0  0  0  0
    1.3478    0.5212    0.0000 C   0  0  1  0  0  0  0  0  0  0  0  0
    2.1728    0.5212    0.0000 O   0  0  0  0  0  0  0  0  0  0  0  0
    0.8629    1.1887    0.0000 C   0  0  2  0  0  0  0  0  0  0  0  0
    1.1179    1.9733    0.0000 N   0  0  0  0  0  0  0  0  0  0  0  0
    0.6329    2.6407    0.0000 C   0  0  0  0  0  0  0  0  0  0  0  0
    1.1179    3.3082    0.0000 N   0  0  0  0  0  0  0  0  0  0  0  0
    1.9025    3.0532    0.0000 C   0  0  0  0  0  0  0  0  0  0  0  0
    2.6169    3.4657    0.0000 C   0  0  0  0  0  0  0  0  0  0  0  0
    2.6169    4.2907    0.0000 N   0  0  0  0  0  0  0  0  0  0  0  0
    3.3314    3.0532    0.0000 N   0  0  0  0  0  0  0  0  0  0  0  0
    3.3314    2.2282    0.0000 C   0  0  0  0  0  0  0  0  0  0  0  0
    2.6169    1.8157    0.0000 N   0  0  0  0  0  0  0  0  0  0  0  0
    1.9025    2.2282    0.0000 C   0  0  0  0  0  0  0  0  0  0  0  0
  2  1  1  6  0  0  0
  2  3  1  0  0  0  0
  5  2  1  0  0  0  0
  3  4  1  0  0  0  0
  5  6  2  0  0  0  0
  5  7  1  0  0  0  0
  7  8  1  0  0  0  0
  9  8  2  0  0  0  0
 10  8  2  0  0  0  0
 11  8  1  0  0  0  0
 12 11  1  0  0  0  0
 13 12  1  1  0  0  0
 13 14  1  0  0  0  0
 15 13  1  0  0  0  0
 19 14  1  0  0  0  0
 15 16  1  6  0  0  0
 17 15  1  0  0  0  0
 17 18  1  6  0  0  0
 19 17  1  0  0  0  0
 19 20  1  1  0  0  0
 21 20  1  0  0  0  0
 29 20  1  0  0  0  0
 21 22  2  0  0  0  0
 23 22  1  0  0  0  0
 23 24  2  0  0  0  0
 29 23  1  0  0  0  0
 24 25  1  0  0  0  0
 24 26  1  0  0  0  0
 27 26  2  0  0  0  0
 27 28  1  0  0  0  0
 29 28  2  0  0  0  0
M  END