
          11280714522D 1   1.00000     0.00000     0

 56 61  0     1  0            999 V2000
    5.9917   -2.9417    0.0000 N   0  0  0  0  0  0           0  0  0
    6.3500   -2.1917    0.0000 C   0  0  2  0  0  0           0  0  0
    5.1750   -1.2542    0.0000 N   0  0  3  0  0  0           0  0  0
    5.9875   -1.4375    0.0000 C   0  0  0  0  0  0           0  0  0
    5.1792   -3.1292    0.0000 C   0  0  0  0  0  0           0  0  0
    4.5250   -2.6125    0.0000 C   0  0  0  0  0  0           0  0  0
    7.1750   -2.1875    0.0000 N   0  0  0  0  0  0           0  0  0
    4.5250   -1.7792    0.0000 C   0  0  0  0  0  0           0  0  0
    7.5875   -2.9000    0.0000 C   0  0  0  0  0  0           0  0  0
    7.1792   -6.4667    0.0000 C   0  0  0  0  0  0           0  0  0
    8.4125   -2.9000    0.0000 N   0  0  0  0  0  0           0  0  0
   -0.9958  -10.2917    0.0000 N   0  0  3  0  0  0           0  0  0
    5.9417   -8.6167    0.0000 C   0  0  0  0  0  0           0  0  0
    6.5000   -0.7917    0.0000 O   0  0  0  0  0  0           0  0  0
    4.9917   -3.9375    0.0000 C   0  0  0  0  0  0           0  0  0
    7.1792   -3.6167    0.0000 O   0  0  0  0  0  0           0  0  0
    6.3542   -7.9000    0.0000 C   0  0  0  0  0  0           0  0  0
    6.3542   -6.4667    0.0000 O   0  0  0  0  0  0           0  0  0
    7.5917   -5.7542    0.0000 O   0  0  0  0  0  0           0  0  0
    8.8292   -3.6125    0.0000 C   0  0  0  0  0  0           0  0  0
    6.1375   -9.4167    0.0000 O   0  0  0  0  0  0           0  0  0
    7.5917   -7.1792    0.0000 N   0  0  0  0  0  0           0  0  0
   -0.3958   -9.7250    0.0000 C   0  0  0  0  0  0           0  0  0
    0.3917   -9.9625    0.0000 C   0  0  0  0  0  0           0  0  0
    5.1542   -8.3875    0.0000 N   0  0  0  0  0  0           0  0  0
    4.9875   -0.4542    0.0000 C   0  0  0  0  0  0           0  0  0
    8.4167   -4.3167    0.0000 C   0  0  0  0  0  0           0  0  0
    0.9917   -9.3917    0.0000 C   0  0  0  0  0  0           0  0  0
    7.1792   -7.9000    0.0000 C   0  0  0  0  0  0           0  0  0
    8.4167   -5.7542    0.0000 C   0  0  0  0  0  0           0  0  0
    3.8042   -3.0250    0.0000 C   0  0  0  0  0  0           0  0  0
    8.8292   -5.0375    0.0000 C   0  0  0  0  0  0           0  0  0
    1.7792   -9.6292    0.0000 C   0  0  0  0  0  0           0  0  0
    3.8042   -1.3667    0.0000 C   0  0  0  0  0  0           0  0  0
    3.7667   -8.7250    0.0000 C   0  0  0  0  0  0           0  0  0
    2.3750   -9.0625    0.0000 O   0  0  0  0  0  0           0  0  0
   -0.8000  -11.0917    0.0000 C   0  0  0  0  0  0           0  0  0
   -1.7833  -10.0542    0.0000 C   0  0  0  0  0  0           0  0  0
   10.0667   -4.3167    0.0000 C   0  0  0  0  0  0           0  0  0
    1.3792  -11.0000    0.0000 C   0  0  0  0  0  0           0  0  0
    4.5542   -8.9542    0.0000 C   0  0  0  0  0  0           0  0  0
    9.6500   -3.6042    0.0000 C   0  0  0  0  0  0           0  0  0
    0.5875  -10.7667    0.0000 C   0  0  0  0  0  0           0  0  0
    5.6000   -4.4917    0.0000 C   0  0  0  0  0  0           0  0  0
    4.2042   -4.1792    0.0000 C   0  0  0  0  0  0           0  0  0
    3.1667   -9.2917    0.0000 C   0  0  0  0  0  0           0  0  0
    9.6542   -5.0375    0.0000 C   0  0  0  0  0  0           0  0  0
    1.9792  -10.4292    0.0000 C   0  0  0  0  0  0           0  0  0
    3.0917   -2.6125    0.0000 C   0  0  0  0  0  0           0  0  0
    3.0917   -1.7875    0.0000 C   0  0  0  0  0  0           0  0  0
   -1.3958  -11.6625    0.0000 C   0  0  0  0  0  0           0  0  0
   -2.3833  -10.6250    0.0000 C   0  0  0  0  0  0           0  0  0
    5.4167   -5.2917    0.0000 C   0  0  0  0  0  0           0  0  0
    4.0250   -4.9792    0.0000 C   0  0  0  0  0  0           0  0  0
   -2.1875  -11.4292    0.0000 C   0  0  0  0  0  0           0  0  0
    4.6292   -5.5417    0.0000 C   0  0  0  0  0  0           0  0  0
  2  1  1  0     0  0
  3  4  1  0     0  0
  4  2  1  0     0  0
  5  1  2  0     0  0
  6  5  1  0     0  0
  2  7  1  6     0  0
  8  6  1  0     0  0
  9  7  1  0     0  0
 10 19  1  0     0  0
 11  9  1  0     0  0
 12 23  1  0     0  0
 13 17  1  0     0  0
 14  4  2  0     0  0
 15  5  1  0     0  0
 16  9  2  0     0  0
 17 29  1  0     0  0
 18 10  2  0     0  0
 19 30  1  0     0  0
 20 11  1  0     0  0
 21 13  2  0     0  0
 22 10  1  0     0  0
 23 24  1  0     0  0
 24 28  2  0     0  0
 25 13  1  0     0  0
 26  3  1  0     0  0
 27 20  2  0     0  0
 28 33  1  0     0  0
 29 22  1  0     0  0
 30 32  1  0     0  0
 31  6  2  0     0  0
 32 27  1  0     0  0
 33 36  1  0     0  0
 34  8  2  0     0  0
 35 41  1  0     0  0
 36 46  1  0     0  0
 37 12  1  0     0  0
 38 12  1  0     0  0
 39 42  2  0     0  0
 40 48  1  0     0  0
 41 25  1  0     0  0
 42 20  1  0     0  0
 43 40  2  0     0  0
 44 15  1  0     0  0
 45 15  2  0     0  0
 46 35  1  0     0  0
 47 39  1  0     0  0
 48 33  2  0     0  0
 49 31  1  0     0  0
 50 49  2  0     0  0
 51 37  1  0     0  0
 52 38  1  0     0  0
 53 44  2  0     0  0
 54 45  1  0     0  0
 55 52  1  0     0  0
 56 54  2  0     0  0
  8  3  1  0     0  0
 53 56  1  0     0  0
 34 50  1  0     0  0
 32 47  2  0     0  0
 43 24  1  0     0  0
 51 55  1  0     0  0
M  END