
          08180812482D 1   1.00000     0.00000     0

 19 20  0     0  0            999 V2000
   -2.3806  -15.2666    0.0000 N   0  0  0  0  0  0           0  0  0
   -2.3818  -16.0940    0.0000 C   0  0  0  0  0  0           0  0  0
   -1.6669  -16.5069    0.0000 C   0  0  0  0  0  0           0  0  0
   -1.6687  -14.8539    0.0000 C   0  0  0  0  0  0           0  0  0
   -0.9534  -15.2630    0.0000 C   0  0  0  0  0  0           0  0  0
   -0.9531  -16.0940    0.0000 C   0  0  0  0  0  0           0  0  0
   -0.1971  -14.9336    0.0000 C   0  0  0  0  0  0           0  0  0
    0.4664  -15.4239    0.0000 N   0  3  0  0  0  0           0  0  0
    0.4569  -16.2482    0.0000 C   0  0  0  0  0  0           0  0  0
    1.2394  -16.5095    0.0000 S   0  0  0  0  0  0           0  0  0
    1.7297  -15.8459    0.0000 C   0  0  0  0  0  0           0  0  0
    1.2501  -15.1747    0.0000 C   0  0  0  0  0  0           0  0  0
    1.5106  -14.3919    0.0000 C   0  0  0  0  0  0           0  0  0
    2.5547  -15.8525    0.0000 C   0  0  0  0  0  0           0  0  0
    2.9615  -16.5703    0.0000 C   0  0  0  0  0  0           0  0  0
    3.7864  -16.5769    0.0000 O   0  0  0  0  0  0           0  0  0
   -3.0966  -16.5059    0.0000 C   0  0  0  0  0  0           0  0  0
   -1.6712  -14.0289    0.0000 N   0  0  0  0  0  0           0  0  0
   -3.0972  -17.3309    0.0000 C   0  0  0  0  0  0           0  0  0
  4  1  1  0     0  0
  5  6  1  0     0  0
  9 10  1  0     0  0
 10 11  1  0     0  0
 11 12  2  0     0  0
 12  8  1  0     0  0
  2  3  1  0     0  0
 12 13  1  0     0  0
  3  6  2  0     0  0
 11 14  1  0     0  0
  5  7  1  0     0  0
 14 15  1  0     0  0
  1  2  2  0     0  0
 15 16  1  0     0  0
  7  8  1  0     0  0
  2 17  1  0     0  0
  8  9  2  0     0  0
  4 18  1  0     0  0
  5  4  2  0     0  0
 17 19  1  0     0  0
M  CHG  1   8   1
M  END