
  CDK    9/16/09,9:59

 15 16  0  0  0  0  0  0  0  0999 V2000
    1.5558  -16.7335    0.0000 C   0  0  0  0  0  0  0  0  0  0  0  0
    1.9676  -17.4483    0.0000 N   0  0  0  0  0  0  0  0  0  0  0  0
    1.5528  -18.1576    0.0000 C   0  0  0  0  0  0  0  0  0  0  0  0
    0.7274  -18.1618    0.0000 C   0  0  0  0  0  0  0  0  0  0  0  0
    0.3197  -17.4447    0.0000 O   0  0  0  0  0  0  0  0  0  0  0  0
    1.9727  -16.0152    0.0000 C   0  0  0  0  0  0  0  0  0  0  0  0
    1.9740  -14.6820    0.0000 N   0  0  0  0  0  0  0  0  0  0  0  0
    1.4923  -15.3537    0.0000 C   0  0  0  0  0  0  0  0  0  0  0  0
    2.7590  -14.9378    0.0000 C   0  0  0  0  0  0  0  0  0  0  0  0
    2.7570  -15.7616    0.0000 C   0  0  0  0  0  0  0  0  0  0  0  0
    3.4724  -16.1776    0.0000 N   0  0  0  0  0  0  0  0  0  0  0  0
    4.1904  -15.7627    0.0000 C   0  0  0  0  0  0  0  0  0  0  0  0
    4.1885  -14.9357    0.0000 N   0  0  0  0  0  0  0  0  0  0  0  0
    3.4724  -14.5234    0.0000 C   0  0  0  0  0  0  0  0  0  0  0  0
    3.4709  -13.6977    0.0000 O   0  0  0  0  0  0  0  0  0  0  0  0
  9  7  1  0  0  0  0 
  7  8  1  0  0  0  0 
  8  6  2  0  0  0  0 
  1  2  1  0  0  0  0 
  4  5  1  0  0  0  0 
  9 10  2  0  0  0  0 
  2  3  1  0  0  0  0 
 10 11  1  0  0  0  0 
  1  6  1  0  0  0  0 
 11 12  2  0  0  0  0 
  6 10  1  0  0  0  0 
 12 13  1  0  0  0  0 
 13 14  1  0  0  0  0 
 14  9  1  0  0  0  0 
  3  4  1  0  0  0  0 
 14 15  2  0  0  0  0 
M  END