
  SciTegic05061116452D

 35 39  0  0  0  0            999 V2000
   12.0920  -16.9639    0.0000 C   0  0
   12.0908  -17.7892    0.0000 C   0  0
   12.8037  -18.2009    0.0000 C   0  0
   13.5184  -17.7887    0.0000 C   0  0
   13.5155  -16.9604    0.0000 C   0  0
   12.8019  -16.5522    0.0000 C   0  0
   12.7995  -15.7294    0.0000 N   0  0
   13.5109  -15.3159    0.0000 C   0  0
   14.2226  -15.7276    0.0000 N   0  0
   14.2126  -14.0819    0.0000 C   0  0
   13.5047  -14.4971    0.0000 N   0  0
   12.8041  -19.0189    0.0000 N   0  0
   12.0896  -19.4288    0.0000 C   0  0
   12.0874  -20.2481    0.0000 C   0  0
   12.7980  -20.6636    0.0000 C   0  0
   13.5126  -20.2535    0.0000 C   0  0
   13.5165  -19.4281    0.0000 C   0  0
   16.4160  -14.1005    0.0000 C   0  0
   15.5877  -13.9575    0.0000 N   0  0
   15.6374  -15.8687    0.0000 N   0  0
   14.9343  -15.3150    0.0000 C   0  0
   14.9315  -14.4909    0.0000 C   0  0
   15.4436  -16.7424    0.0000 C   0  0
   16.8986  -13.4341    0.0000 O   0  0
   16.8308  -14.8807    0.0000 C   0  0
   16.4723  -15.6726    0.0000 C   0  0
   16.9787  -16.3768    0.0000 C   0  0
   17.8433  -16.2903    0.0000 C   0  0
   18.1993  -15.4936    0.0000 C   0  0
   17.6908  -14.7928    0.0000 C   0  0
   12.7947  -21.4864    0.0000 O   0  0
   15.3796  -13.1615    0.0000 C   0  0
   11.3792  -16.5527    0.0000 O   0  0
   11.3790  -15.7299    0.0000 C   0  0
   10.6663  -15.3185    0.0000 C   0  0
 15 16  1  0
 16 17  1  0
  3 12  1  0
  8  9  2  0
  9 21  1  0
  4  5  1  0
 22 10  1  0
 25 18  1  0
 18 19  1  0
 20 21  1  0
 21 22  2  0
 22 19  1  0
 26 20  1  0
  2  3  1  0
 20 23  1  0
 10 11  2  0
 18 24  2  0
 11  8  1  0
 12 13  1  0
 25 26  2  0
  5  6  2  0
 26 27  1  0
  6  1  1  0
 27 28  2  0
  1  2  2  0
 28 29  1  0
  6  7  1  0
 29 30  2  0
 30 25  1  0
  3  4  2  0
 15 31  1  0
  7  8  1  0
 19 32  1  0
 12 17  1  0
  1 33  1  0
 13 14  1  0
 33 34  1  0
 14 15  1  0
 34 35  1  0
M  END