
  SciTegic01091216402D

 22 24  0  0  0  0            999 V2000
    9.1493    0.8710    0.0000 C   0  0
    9.1481    0.0435    0.0000 C   0  0
    9.8630   -0.3694    0.0000 C   0  0
   10.5795    0.0440    0.0000 C   0  0
   10.5766    0.8746    0.0000 C   0  0
    9.8612    1.2837    0.0000 C   0  0
    9.8588    2.1088    0.0000 N   0  0
   11.2896    1.2898    0.0000 O   0  0
   12.0056    0.8800    0.0000 C   0  0
   12.0054    0.0572    0.0000 C   0  0
   12.7207   -0.3525    0.0000 C   0  0
   13.4346    0.0628    0.0000 C   0  0
   13.4288    0.8921    0.0000 C   0  0
   12.7130    1.2981    0.0000 C   0  0
   14.1508   -0.3438    0.0000 C   0  0
   14.1561   -1.1700    0.0000 N   0  0
   14.8729   -1.5767    0.0000 C   0  0
   15.5852   -1.1585    0.0000 N   0  0
   15.5760   -0.3292    0.0000 C   0  0
   14.8584    0.0738    0.0000 N   0  0
   14.8791   -2.4018    0.0000 N   0  0
   16.2856    0.0915    0.0000 N   0  0
 10 11  1  0
  5  6  2  0
 11 12  2  0
  6  1  1  0
 12 13  1  0
  1  2  2  0
 13 14  2  0
 14  9  1  0
  6  7  1  0
  3  4  2  0
 15 16  2  0
  5  8  1  0
 16 17  1  0
 17 18  2  0
  8  9  1  0
 18 19  1  0
  4  5  1  0
 19 20  2  0
 20 15  1  0
 12 15  1  0
  9 10  2  0
 17 21  1  0
  2  3  1  0
 19 22  1  0
M  END