
  SciTegic09171211542D

182175  0  0  0  0            999 V2000
    1.4661  -21.0120    0.0000 O   0  0
    0.9640  -21.6663    0.0000 S   0  0
    1.7817  -21.7740    0.0000 O   0  0
   -0.3649  -26.3948    0.0000 O   0  0
   -0.6744  -25.6303    0.0000 S   0  0
   -1.1818  -26.2806    0.0000 O   0  0
   -1.7928  -26.5756    0.0000 O   0  0
   -2.1023  -25.8111    0.0000 S   0  0
   -2.6097  -26.4614    0.0000 O   0  0
    2.7939  -26.9338    0.0000 O   0  0
    2.4792  -27.6968    0.0000 S   0  0
    3.2974  -27.5878    0.0000 O   0  0
    3.1670  -25.2153    0.0000 O   0  0
    3.6699  -25.8693    0.0000 S   0  0
    3.9848  -25.1068    0.0000 O   0  0
    1.8679  -24.0309    0.0000 O   0  0
    2.6880  -23.9252    0.0000 S   0  0
    2.1864  -23.2679    0.0000 O   0  0
   -3.8413  -20.3330    0.0000 O   0  0
   -4.1560  -21.0961    0.0000 S   0  0
   -3.3378  -20.9871    0.0000 O   0  0
   -2.1024  -24.1252    0.0000 O   0  0
   -2.4119  -23.3607    0.0000 S   0  0
   -2.9192  -24.0109    0.0000 O   0  0
    0.1736  -28.7280    0.0000 O   0  0
   -0.3249  -28.0707    0.0000 S   0  0
   -0.6449  -28.8311    0.0000 O   0  0
    1.6065  -26.5666    0.0000 C   0  0  1  0  0  0
    2.2596  -26.0625    0.0000 C   0  0  1  0  0  0
    2.1477  -25.2494    0.0000 C   0  0  1  0  0  0
    1.3894  -24.9352    0.0000 C   0  0  2  0  0  0
    0.7364  -25.4393    0.0000 O   0  0
    0.8416  -26.2575    0.0000 C   0  0  2  0  0  0
    0.1851  -26.7586    0.0000 C   0  0
    0.3348  -27.5684    0.0000 O   0  0
   -1.0830  -27.7470    0.0000 O   0  5
    3.0231  -26.3749    0.0000 O   0  0
    2.8008  -24.7453    0.0000 O   0  0
    1.2806  -24.1174    0.0000 O   0  0
    0.5179  -23.8028    0.0000 C   0  0  2  0  0  0
    0.4145  -22.9856    0.0000 C   0  0  1  0  0  0
   -0.3441  -22.6705    0.0000 C   0  0  2  0  0  0
   -1.0008  -23.1705    0.0000 O   0  0
   -0.8938  -23.9895    0.0000 C   0  0  1  0  0  0
   -0.1301  -24.3085    0.0000 C   0  0  1  0  0  0
   -1.5493  -24.4904    0.0000 C   0  0
   -0.0203  -25.1262    0.0000 O   0  0
    1.0705  -22.4853    0.0000 O   0  0
   -0.4498  -21.8523    0.0000 O   0  0
   -1.2114  -21.5327    0.0000 C   0  0  1  0  0  0
   -0.5769  -19.9853    0.0000 O   0  0
    0.0799  -20.4908    0.0000 S   0  0
    0.1892  -19.6692    0.0000 O   0  0
    0.1552  -18.4910    0.0000 O   0  0
    0.2642  -19.3086    0.0000 S   0  0
    0.9178  -18.8054    0.0000 O   0  0
   -2.7573  -19.3355    0.0000 O   0  0
   -3.5137  -19.0157    0.0000 S   0  0
   -3.4124  -19.8307    0.0000 O   0  0
   -3.9358  -15.3577    0.0000 O   0  0
   -3.8268  -16.1753    0.0000 S   0  0
   -3.1733  -15.6721    0.0000 O   0  0
   -1.4884  -15.0924    0.0000 O   0  0
   -1.3794  -15.9100    0.0000 S   0  0
   -0.7259  -15.4068    0.0000 O   0  0
    0.7476  -13.7993    0.0000 O   0  0
    0.0911  -14.2989    0.0000 S   0  0
    0.8520  -14.6177    0.0000 O   0  0
    2.8096  -16.2432    0.0000 O   0  0
    2.7185  -15.4271    0.0000 S   0  0
    2.0572  -15.9141    0.0000 O   0  0
    0.2617  -15.7195    0.0000 C   0  0  1  0  0  0
   -0.0665  -16.4764    0.0000 C   0  0  1  0  0  0
    0.4242  -17.1344    0.0000 C   0  0  1  0  0  0
    1.2399  -17.0431    0.0000 C   0  0  2  0  0  0
    1.5682  -16.2862    0.0000 O   0  0
    1.0808  -15.6206    0.0000 C   0  0  2  0  0  0
    1.7303  -17.7065    0.0000 O   0  0
    0.0959  -17.8912    0.0000 O   0  0
   -0.8860  -16.5718    0.0000 O   0  0
   -0.2315  -15.0583    0.0000 O   0  0
    1.4090  -14.8637    0.0000 C   0  0
    2.2286  -14.7696    0.0000 O   0  0
    3.5396  -15.3382    0.0000 O   0  5
   -0.3988  -13.6391    0.0000 O   0  5
   -2.1978  -16.0051    0.0000 O   0  5
   -0.7237  -17.9854    0.0000 C   0  0  1  0  0  0
   -1.2098  -17.3215    0.0000 O   0  0
   -2.0261  -17.4133    0.0000 C   0  0  1  0  0  0
   -2.3584  -18.1688    0.0000 C   0  0  2  0  0  0
   -1.8681  -18.8335    0.0000 C   0  0  1  0  0  0
   -1.0454  -18.7427    0.0000 C   0  0  2  0  0  0
   -0.5531  -19.4047    0.0000 O   0  0
   -2.1995  -19.5912    0.0000 O   0  0
   -3.1783  -18.2599    0.0000 O   0  0
   -2.5149  -16.7487    0.0000 C   0  0
   -3.3349  -16.8398    0.0000 O   0  0
   -4.6436  -16.2663    0.0000 O   0  5
   -4.3294  -19.1066    0.0000 O   0  5
   -2.0860  -20.4084    0.0000 C   0  0  1  0  0  0
    0.7588  -19.9712    0.0000 O   0  5
   -2.7385  -20.9103    0.0000 O   0  0
   -2.6274  -21.7242    0.0000 C   0  0  1  0  0  0
   -1.8643  -22.0385    0.0000 C   0  0  1  0  0  0
   -1.3216  -20.7124    0.0000 C   0  0  1  0  0  0
   -0.5578  -21.0079    0.0000 O   0  0
    0.8541  -20.7880    0.0000 O   0  5
   -3.2803  -22.2286    0.0000 C   0  0
   -4.0435  -21.9154    0.0000 O   0  0
   -4.9172  -20.7846    0.0000 O   0  5
   -1.7539  -22.8561    0.0000 O   0  0
   -3.1774  -23.0426    0.0000 O   0  5
   -1.4432  -25.3086    0.0000 O   0  0
   -2.8603  -25.4923    0.0000 O   0  5
    1.7189  -27.3839    0.0000 O   0  0
    0.2040  -21.3491    0.0000 O   0  5
    3.3439  -23.4235    0.0000 O   0  5
    4.4390  -26.1823    0.0000 O   0  5
    2.5953  -28.5125    0.0000 O   0  5
   -0.4128  -17.2216    0.0000 H   0  0
   -1.4317  -19.9079    0.0000 H   0  0
    0.3099  -22.1692    0.0000 H   0  0
    0.6228  -24.6171    0.0000 H   0  0
   -1.1773  -24.9763    0.0000 O   0  5
    2.5500  -17.6135    0.0000 C   0  0
    3.0404  -18.2770    0.0000 C   0  0
    3.8602  -18.1840    0.0000 C   0  0
    4.1895  -17.4276    0.0000 N   0  0
    4.9944  -17.2487    0.0000 C   0  0
    5.0740  -16.4275    0.0000 C   0  0
    4.3175  -16.0981    0.0000 N   0  0
    3.7706  -16.7158    0.0000 N   0  0
    5.7850  -16.0092    0.0000 C   0  0
    6.5029  -16.4158    0.0000 O   0  0
    7.2167  -15.1792    0.0000 C   0  0
    7.2167  -16.0042    0.0000 C   0  0  1  0  0  0
    7.9287  -16.4125    0.0000 C   0  0
    7.9287  -14.7625    0.0000 C   0  0
    8.6407  -15.1792    0.0000 C   0  0  1  0  0  0
    8.6372  -16.0042    0.0000 C   0  0  1  0  0  0
    9.3460  -16.4174    0.0000 C   0  0
   10.0628  -16.0102    0.0000 C   0  0
    9.3530  -14.7674    0.0000 C   0  0  2  0  0  0
   10.0624  -15.1877    0.0000 C   0  0  2  0  0  0
   10.0793  -13.5415    0.0000 C   0  0
    9.3583  -13.9451    0.0000 C   0  0
   10.7887  -13.9618    0.0000 C   0  0  1  0  0  0
   10.7798  -14.7834    0.0000 C   0  0  1  0  0  0
   11.5584  -15.0458    0.0000 C   0  0
   12.0485  -14.3864    0.0000 C   0  0
   11.5728  -13.7165    0.0000 C   0  0  2  0  0  0
    8.6333  -14.3542    0.0000 C   0  0
    9.3458  -15.5917    0.0000 H   0  0
   10.0542  -14.3625    0.0000 H   0  0
   10.7750  -15.6083    0.0000 H   0  0
   10.7833  -13.1333    0.0000 C   0  0
   11.8363  -12.9347    0.0000 C   0  0  1  0  0  0
   12.6450  -12.7720    0.0000 C   0  0
   11.2909  -12.3157    0.0000 C   0  0
   13.1904  -13.3910    0.0000 C   0  0
   13.9992  -13.2283    0.0000 C   0  0
   14.5445  -13.8473    0.0000 C   0  0
   15.3533  -13.6846    0.0000 C   0  0
   14.2811  -14.6291    0.0000 C   0  0
   12.3958  -13.7125    0.0000 H   0  0
    8.6292  -16.8250    0.0000 H   0  0
    3.5625  -19.4688    0.0000 Na  0  3
    4.6562  -19.3438    0.0000 Na  0  3
    5.6875  -19.4062    0.0000 Na  0  3
    6.7500  -19.4375    0.0000 Na  0  3
    7.7812  -19.4062    0.0000 Na  0  3
    8.9375  -19.4375    0.0000 Na  0  3
   10.2813  -19.5625    0.0000 Na  0  3
   11.2188  -19.5312    0.0000 Na  0  3
    4.3438  -20.2813    0.0000 Na  0  3
    5.6250  -20.3437    0.0000 Na  0  3
    6.8750  -20.3437    0.0000 Na  0  3
    7.7812  -20.3437    0.0000 Na  0  3
    8.8750  -20.3437    0.0000 Na  0  3
   10.5000  -20.5625    0.0000 Na  0  3
   11.8125  -20.5937    0.0000 Na  0  3
    9.9375  -21.5938    0.0000 Na  0  3
 18 17  2  0
 41 48  1  1
 42 49  1  0
 87 92  1  0
 88 89  1  0
 89 90  1  0
 90 91  1  0
 91 92  1  0
 11 10  2  0
 92 93  1  1
 50 49  1  1
 91 94  1  1
 52 51  2  0
 90 95  1  6
 53 52  2  0
 89 96  1  1
 12 11  2  0
 96 97  1  0
 97 61  1  0
 20 19  2  0
 61 98  1  0
 95 58  1  0
 21 20  2  0
 58 99  1  0
 55 54  2  0
 94100  1  0
 93 55  1  0
 56 55  2  0
 55101  1  0
100102  1  0
 28 33  1  0
 29 30  1  0
 30 31  1  0
 58 57  2  0
100105  1  0
102103  1  0
103104  1  0
104 50  1  0
 50105  1  0
 59 58  2  0
105106  1  1
106 52  1  0
 31 32  1  0
 52107  1  0
 32 33  1  0
103108  1  1
  2  1  2  0
108109  1  0
109 20  1  0
 61 60  2  0
 20110  1  0
 62 61  2  0
104111  1  6
111 23  1  0
 33 34  1  1
 23112  1  0
  3  2  2  0
 46113  1  0
113  8  1  0
 34 35  1  0
  8114  1  0
 64 63  2  0
 28115  1  6
 48  2  1  0
 65 64  2  0
  2116  1  0
 38 17  1  0
 35 26  1  0
 17117  1  0
 37 14  1  0
  8  7  2  0
 14118  1  0
115 11  1  0
 26 36  1  0
 11119  1  0
 67 66  2  0
 87120  1  1
 68 67  2  0
100121  1  1
 23 22  2  0
 42122  1  1
 29 37  1  1
 31123  1  1
 47  5  1  0
 24 23  2  0
  5124  1  0
 70 69  2  0
 78125  1  0
 71 70  2  0
125126  1  0
 30 38  1  1
126127  1  0
 14 13  2  0
127128  1  0
128129  1  0
 31 39  1  0
 72 73  1  0
 15 14  2  0
 40 39  1  1
129130  2  0
130131  1  0
131132  2  0
132128  1  0
 40 41  1  0
130133  1  0
  9  8  2  0
133134  1  0
135136  1  0
 26 25  2  0
 27 26  2  0
 72 77  1  0
 73 74  1  0
135138  1  0
136137  1  0
137140  1  0
139138  1  0
139140  1  0
 74 75  1  0
 75 76  1  0
 76 77  1  0
  5  4  2  0
139143  1  0
140141  1  0
141142  1  0
142144  1  0
143144  1  0
 75 78  1  6
  6  5  2  0
 74 79  1  1
 40 45  1  0
143146  1  0
144148  1  0
147145  1  0
145146  1  0
147148  1  0
 73 80  1  1
 41 42  1  0
 72 81  1  6
 42 43  1  0
 77 82  1  1
148149  1  0
149150  1  0
150151  1  0
151147  1  0
136134  1  1
 43 44  1  0
139152  1  1
 82 83  1  0
143153  1  6
 83 70  1  0
144154  1  1
 44 45  1  0
148155  1  6
 70 84  1  0
147156  1  1
 81 67  1  0
151157  1  0
 17 16  2  0
157158  1  0
 67 85  1  0
157159  1  6
 80 64  1  0
158160  1  0
 44 46  1  1
160161  1  0
 64 86  1  0
161162  1  0
 28 29  1  0
162163  1  0
 79 87  1  0
162164  1  0
 87 88  1  0
151165  1  6
 45 47  1  6
140166  1  6
M  CHG  8  36  -1  84  -1  85  -1  86  -1  98  -1  99  -1 101  -1 107  -1
M  CHG  8 110  -1 112  -1 114  -1 116  -1 117  -1 118  -1 119  -1 124  -1
M  CHG  8 167   1 168   1 169   1 170   1 171   1 172   1 173   1 174   1
M  CHG  8 175   1 176   1 177   1 178   1 179   1 180   1 181   1 182   1
M  END