
  Mrv0541 05211314572D          

 27 30  0  0  0  0            999 V2000
   -1.7586    2.3065    0.0000 C   0  0  0  0  0  0  0  0  0  0  0  0
   -0.9336    2.3065    0.0000 C   0  0  0  0  0  0  0  0  0  0  0  0
   -1.3461    0.4992    0.0000 C   0  0  0  0  0  0  0  0  0  0  0  0
   -0.4192    1.6615    0.0000 C   0  0  0  0  0  0  0  0  0  0  0  0
   -0.6028    0.8572    0.0000 C   0  0  0  0  0  0  0  0  0  0  0  0
    0.0019    0.2960    0.0000 C   0  0  0  0  0  0  0  0  0  0  0  0
    0.7903    0.5392    0.0000 C   0  0  0  0  0  0  0  0  0  0  0  0
    0.9739    1.3435    0.0000 C   0  0  0  0  0  0  0  0  0  0  0  0
    0.3691    1.9047    0.0000 C   0  0  0  0  0  0  0  0  0  0  0  0
   -2.0894    0.8572    0.0000 C   0  0  0  0  0  0  0  0  0  0  0  0
   -2.2730    1.6615    0.0000 C   0  0  0  0  0  0  0  0  0  0  0  0
   -3.0614    1.9047    0.0000 C   0  0  0  0  0  0  0  0  0  0  0  0
   -3.6661    1.3435    0.0000 C   0  0  0  0  0  0  0  0  0  0  0  0
   -3.4825    0.5392    0.0000 C   0  0  0  0  0  0  0  0  0  0  0  0
   -2.6942    0.2960    0.0000 N   0  0  0  0  0  0  0  0  0  0  0  0
    1.7622    1.5867    0.0000 Cl  0  0  0  0  0  0  0  0  0  0  0  0
   -1.3461   -0.3258    0.0000 C   0  0  0  0  0  0  0  0  0  0  0  0
   -2.0606   -0.7383    0.0000 C   0  0  0  0  0  0  0  0  0  0  0  0
   -2.0606   -1.5633    0.0000 C   0  0  0  0  0  0  0  0  0  0  0  0
   -1.3461   -1.9758    0.0000 N   0  0  0  0  0  0  0  0  0  0  0  0
   -0.6317   -1.5633    0.0000 C   0  0  0  0  0  0  0  0  0  0  0  0
   -0.6317   -0.7383    0.0000 C   0  0  0  0  0  0  0  0  0  0  0  0
   -0.6317   -3.2133    0.0000 O   0  0  0  0  0  0  0  0  0  0  0  0
   -2.0606   -3.2133    0.0000 O   0  0  0  0  0  0  0  0  0  0  0  0
   -1.3461   -2.8008    0.0000 C   0  0  0  0  0  0  0  0  0  0  0  0
   -0.6317   -4.0383    0.0000 C   0  0  0  0  0  0  0  0  0  0  0  0
    0.0828   -4.4508    0.0000 C   0  0  0  0  0  0  0  0  0  0  0  0
 12 13  2  0  0  0  0
  5  6  1  0  0  0  0
 13 14  1  0  0  0  0
 14 15  2  0  0  0  0
 15 10  1  0  0  0  0
  6  7  2  0  0  0  0
  8 16  1  0  0  0  0
  5  3  1  0  0  0  0
  3 17  2  0  0  0  0
 17 18  1  0  0  0  0
  7  8  1  0  0  0  0
 10  3  1  0  0  0  0
  8  9  2  0  0  0  0
  9  4  1  0  0  0  0
  1  2  1  0  0  0  0
 17 22  1  0  0  0  0
 18 19  1  0  0  0  0
 19 20  1  0  0  0  0
 20 21  1  0  0  0  0
 21 22  1  0  0  0  0
 20 25  1  0  0  0  0
  2  4  1  0  0  0  0
 25 23  1  0  0  0  0
 10 11  2  0  0  0  0
  4  5  2  0  0  0  0
 24 25  2  0  0  0  0
 11 12  1  0  0  0  0
 23 26  1  0  0  0  0
  1 11  1  0  0  0  0
 26 27  1  0  0  0  0
M  END