
  SciTegic04021211102D

 20 22  0  0  0  0            999 V2000
   19.4084  -13.6593    0.0000 N   0  0
   19.4072  -14.4868    0.0000 C   0  0
   20.1221  -14.8996    0.0000 N   0  0
   20.1203  -13.2465    0.0000 C   0  0
   20.8357  -13.6557    0.0000 C   0  0
   20.8360  -14.4822    0.0000 C   0  0
   21.6221  -14.7374    0.0000 N   0  0
   22.1078  -14.0686    0.0000 C   0  0
   21.6217  -13.4001    0.0000 N   0  0
   20.1178  -12.4214    0.0000 N   0  0
   20.8311  -12.0068    0.0000 C   0  0
   21.5447  -12.4196    0.0000 C   0  0
   22.2575  -12.0056    0.0000 C   0  0
   22.2555  -11.1796    0.0000 C   0  0
   21.5347  -10.7695    0.0000 C   0  0
   20.8249  -11.1858    0.0000 C   0  0
   22.9682  -10.7641    0.0000 N   0  0
   23.6846  -11.1735    0.0000 C   0  0
   24.3972  -10.7579    0.0000 C   0  0
   23.6881  -11.9986    0.0000 O   0  0
  4  1  1  0
  4 10  1  0
  5  6  1  0
 10 11  1  0
 11 12  2  0
  2  3  1  0
 12 13  1  0
  3  6  2  0
 13 14  2  0
  1  2  2  0
 14 15  1  0
  5  4  2  0
 15 16  2  0
 16 11  1  0
  6  7  1  0
 14 17  1  0
  7  8  1  0
 17 18  1  0
  8  9  2  0
 18 19  1  0
  9  5  1  0
 18 20  2  0
M  END