
  SciTegic01311317052D

 29 31  0  0  0  0            999 V2000
   -4.9415    2.7090    0.0000 C   0  0
   -4.2193    2.3057    0.0000 C   0  0
   -3.5084    2.7303    0.0000 N   0  0
   -3.5201    3.5559    0.0000 C   0  0
   -4.2423    3.9592    0.0000 C   0  0
   -4.9532    3.5346    0.0000 C   0  0
   -2.7903    2.3293    0.0000 C   0  0
   -2.0824    2.7485    0.0000 C   0  0
   -1.3604    2.3406    0.0000 C   0  0
   -0.6462    2.7616    0.0000 O   0  0
    0.0758    2.3583    0.0000 C   0  0
    0.0841    1.5313    0.0000 C   0  0
    0.8052    1.1282    0.0000 C   0  0
    1.5140    1.5552    0.0000 C   0  0
    1.5046    2.3777    0.0000 C   0  0
    0.7784    2.7768    0.0000 C   0  0
    2.2349    1.1547    0.0000 C   0  0
    2.2484    0.3306    0.0000 O   0  0
    2.9418    1.5784    0.0000 C   0  0
    1.5416   -0.0931    0.0000 C   0  0
    0.8223    0.3084    0.0000 C   0  0
    0.1158   -0.1146    0.0000 C   0  0
    0.1290   -0.9395    0.0000 C   0  0
    0.8543   -1.3396    0.0000 C   0  0
    1.5578   -0.9142    0.0000 C   0  0
    3.6622    1.1782    0.0000 C   0  0
    4.3690    1.6019    0.0000 N   0  0
    5.0894    1.2016    0.0000 C   0  0
    4.3554    2.4259    0.0000 C   0  0
  3  7  1  0
 14 15  1  0
  1  2  1  0
 15 16  2  0
 16 11  1  0
  7  8  1  0
 14 17  1  0
  1  6  1  0
 17 18  1  0
  8  9  1  0
 17 19  1  0
  2  3  1  0
 18 20  1  0
  9 10  1  0
 20 21  2  0
  3  4  1  0
 21 22  1  0
 10 11  1  0
 22 23  2  0
  4  5  1  0
 23 24  1  0
 11 12  2  0
 24 25  2  0
 25 20  1  0
  5  6  1  0
 19 26  1  0
 12 13  1  0
 26 27  1  0
 27 28  1  0
 13 14  2  0
 27 29  1  0
M  END