
  SciTegic05221516342D

 38 43  0  0  0  0            999 V2000
   17.1358   -7.5116    0.0000 N   0  0
   16.5524   -6.9283    0.0000 C   0  0
   15.7555   -7.1418    0.0000 C   0  0
   15.5420   -7.9387    0.0000 O   0  0
   14.7451   -8.1523    0.0000 C   0  0
   14.5315   -8.9491    0.0000 C   0  0
   15.1149   -9.5325    0.0000 O   0  0
   13.7347   -9.1627    0.0000 C   0  0
   13.5211   -9.9596    0.0000 N   0  0
   12.7242  -10.1731    0.0000 C   0  0
   12.5107  -10.9700    0.0000 C   0  0
   12.1409   -9.5898    0.0000 C   0  0
   15.1722   -6.5585    0.0000 C   0  0
   15.4270   -5.7738    0.0000 N   0  0
   14.9421   -5.1064    0.0000 C   0  0
   15.4270   -4.4390    0.0000 C   0  0
   16.2117   -4.6938    0.0000 C   0  0
   16.9262   -4.2813    0.0000 C   0  0
   17.6407   -4.6938    0.0000 C   0  0
   17.6407   -5.5189    0.0000 C   0  0
   16.9262   -5.9314    0.0000 C   0  0
   16.2117   -5.5189    0.0000 C   0  0
   15.0915   -3.6852    0.0000 C   0  0
   14.2710   -3.5990    0.0000 C   0  0
   13.7861   -4.2665    0.0000 C   0  0
   14.1216   -5.0201    0.0000 C   0  0
   17.9506   -7.3827    0.0000 C   0  0
   18.3251   -8.1177    0.0000 C   0  0
   17.7417   -8.7011    0.0000 C   0  0
   17.7849   -9.5250    0.0000 C   0  0
   17.0931   -9.9742    0.0000 C   0  0
   16.3580   -9.5997    0.0000 C   0  0
   16.3148   -8.7758    0.0000 C   0  0
   17.0067   -8.3265    0.0000 C   0  0
   19.1490   -8.1608    0.0000 C   0  0
   19.5984   -7.4689    0.0000 C   0  0
   19.2238   -6.7339    0.0000 C   0  0
   18.4000   -6.6907    0.0000 C   0  0
  1  2  1  0
  2  3  1  0
  3  4  1  0
  4  5  1  0
  5  6  1  0
  6  7  1  0
  6  8  1  0
  8  9  1  0
  9 10  1  0
 10 11  1  0
 10 12  1  0
  3 13  1  0
 13 14  1  0
 14 15  1  0
 15 16  2  0
 16 17  1  0
 17 18  1  0
 18 19  2  0
 19 20  1  0
 20 21  2  0
 17 22  2  0
 14 22  1  0
 21 22  1  0
 16 23  1  0
 23 24  2  0
 24 25  1  0
 25 26  2  0
 15 26  1  0
  1 27  1  0
 27 28  2  0
 28 29  1  0
 29 30  1  0
 30 31  2  0
 31 32  1  0
 32 33  2  0
 29 34  2  0
  1 34  1  0
 33 34  1  0
 28 35  1  0
 35 36  2  0
 36 37  1  0
 37 38  2  0
 27 38  1  0
M  END