
          05080814042D 1   1.00000     0.00000     0

 45 51  0     1  0            999 V2000
   -2.7253  -22.7807    0.0000 C   0  0  0  0  0  0           0  0  0
   -2.7265  -23.6064    0.0000 C   0  0  0  0  0  0           0  0  0
   -2.0130  -24.0185    0.0000 C   0  0  0  0  0  0           0  0  0
   -2.0148  -22.3687    0.0000 C   0  0  0  0  0  0           0  0  0
   -1.3009  -22.7770    0.0000 C   0  0  0  0  0  0           0  0  0
   -1.2974  -23.6085    0.0000 C   0  0  0  0  0  0           0  0  0
   -0.5797  -24.0190    0.0000 C   0  0  0  0  0  0           0  0  0
   -0.5865  -22.3560    0.0000 C   0  0  0  0  0  0           0  0  0
    0.1359  -22.7711    0.0000 C   0  0  2  0  0  0           0  0  0
    0.1370  -23.6043    0.0000 C   0  0  2  0  0  0           0  0  0
    0.8550  -24.0176    0.0000 N   0  0  3  0  0  0           0  0  0
    1.5766  -23.6024    0.0000 C   0  0  0  0  0  0           0  0  0
    1.5755  -22.7693    0.0000 C   0  0  1  0  0  0           0  0  0
    0.8529  -22.3514    0.0000 C   0  0  0  0  0  0           0  0  0
    0.8549  -24.8410    0.0000 C   0  0  0  0  0  0           0  0  0
    2.2886  -22.3574    0.0000 C   0  0  0  0  0  0           0  0  0
    3.0018  -22.7689    0.0000 N   0  0  3  0  0  0           0  0  0
    2.2884  -21.5340    0.0000 O   0  0  0  0  0  0           0  0  0
    2.9963  -23.5971    0.0000 C   0  0  0  0  0  0           0  0  0
    3.7053  -24.0085    0.0000 C   0  0  0  0  0  0           0  0  0
    4.4207  -23.6001    0.0000 N   0  0  3  0  0  0           0  0  0
    4.4225  -22.7757    0.0000 C   0  0  0  0  0  0           0  0  0
    3.7089  -22.3597    0.0000 C   0  0  0  0  0  0           0  0  0
    0.1289  -24.4275    0.0000 H   0  0  0  0  0  0           0  0  0
    0.1289  -21.9448    0.0000 H   0  0  0  0  0  0           0  0  0
    5.1324  -24.0143    0.0000 C   0  0  0  0  0  0           0  0  0
    5.1260  -24.8361    0.0000 C   0  0  0  0  0  0           0  0  0
    5.8369  -25.2502    0.0000 C   0  0  0  0  0  0           0  0  0
    5.8412  -23.6029    0.0000 N   0  0  0  0  0  0           0  0  0
   -2.0175  -21.5448    0.0000 O   0  0  0  0  0  0           0  0  0
   -2.7318  -21.1352    0.0000 S   0  0  3  0  0  0           0  0  0
    7.3376  -23.7619    0.0000 N   0  0  0  0  0  0           0  0  0
    6.5526  -24.0133    0.0000 C   0  0  0  0  0  0           0  0  0
    6.5502  -24.8383    0.0000 C   0  0  0  0  0  0           0  0  0
    7.3347  -25.0941    0.0000 N   0  0  0  0  0  0           0  0  0
    7.8193  -24.4264    0.0000 S   0  0  0  0  0  0           0  0  0
   -3.4475  -20.7222    0.0000 C   0  0  0  0  0  0           0  0  0
   -3.1424  -21.8490    0.0000 O   0  0  0  0  0  0           0  0  0
   -2.3187  -20.4230    0.0000 O   0  0  0  0  0  0           0  0  0
   -3.4448  -19.8948    0.0000 C   0  0  0  0  0  0           0  0  0
   -4.1596  -19.4819    0.0000 C   0  0  0  0  0  0           0  0  0
   -4.8761  -19.8952    0.0000 C   0  0  0  0  0  0           0  0  0
   -4.8733  -20.7258    0.0000 C   0  0  0  0  0  0           0  0  0
   -4.1579  -21.1350    0.0000 C   0  0  0  0  0  0           0  0  0
   -5.5898  -19.4845    0.0000 C   0  0  0  0  0  0           0  0  0
 17 23  1  0     0  0
 19 20  1  0     0  0
 20 21  1  0     0  0
 21 22  1  0     0  0
 22 23  1  0     0  0
 10 24  1  1     0  0
  2  3  1  0     0  0
  9 25  1  6     0  0
  3  6  2  0     0  0
 21 26  1  0     0  0
  9 14  1  0     0  0
 26 27  1  0     0  0
 10 11  1  0     0  0
 27 28  2  0     0  0
 28 34  1  0     0  0
 11 12  1  0     0  0
 33 29  1  0     0  0
 29 26  2  0     0  0
 12 13  1  0     0  0
 13 14  1  0     0  0
 30 31  1  0     0  0
  4 30  1  0     0  0
 33 34  1  0     0  0
  1  2  2  0     0  0
 11 15  1  0     0  0
  5  8  1  0     0  0
 13 16  1  1     0  0
  6  7  1  0     0  0
 32 33  2  0     0  0
 34 35  2  0     0  0
 35 36  1  0     0  0
 36 32  1  0     0  0
 16 17  1  0     0  0
 31 37  1  0     0  0
  7 10  1  0     0  0
 31 38  2  0     0  0
 16 18  2  0     0  0
 31 39  2  0     0  0
 17 19  1  0     0  0
 37 40  2  0     0  0
  9  8  1  0     0  0
 40 41  1  0     0  0
  9 10  1  0     0  0
 41 42  2  0     0  0
  5  4  2  0     0  0
 42 43  1  0     0  0
  4  1  1  0     0  0
 43 44  2  0     0  0
 44 37  1  0     0  0
  5  6  1  0     0  0
 42 45  1  0     0  0
M  END