
          11280715312D 1   1.00000     0.00000     0

 36 40  0     0  0            999 V2000
    2.1667   -5.4125    0.0000 C   0  0  0  0  0  0           0  0  0
    2.9917   -5.4750    0.0000 C   0  0  0  0  0  0           0  0  0
    3.1917   -6.2667    0.0000 N   0  0  3  0  0  0           0  0  0
    2.4875   -6.7042    0.0000 C   0  0  0  0  0  0           0  0  0
    1.7292   -4.7125    0.0000 C   0  0  0  0  0  0           0  0  0
    1.8542   -6.1792    0.0000 C   0  0  0  0  0  0           0  0  0
    7.9875   -5.2667    0.0000 N   0  0  3  0  0  0           0  0  0
    6.0250   -5.8792    0.0000 N   0  0  3  0  0  0           0  0  0
    3.5167   -4.8417    0.0000 O   0  0  0  0  0  0           0  0  0
    8.8125   -5.2667    0.0000 C   0  0  0  0  0  0           0  0  0
    2.4292   -7.5292    0.0000 O   0  0  0  0  0  0           0  0  0
    0.9042   -4.6542    0.0000 C   0  0  0  0  0  0           0  0  0
    2.0375   -3.9500    0.0000 C   0  0  0  0  0  0           0  0  0
    7.3042   -5.4917    0.0000 C   0  0  0  0  0  0           0  0  0
    7.5792   -5.9875    0.0000 C   0  0  0  0  0  0           0  0  0
    3.9542   -6.5792    0.0000 C   0  0  0  0  0  0           0  0  0
    9.2167   -4.5542    0.0000 C   0  0  0  0  0  0           0  0  0
    9.2167   -5.9792    0.0000 C   0  0  0  0  0  0           0  0  0
    6.6542   -5.6542    0.0000 C   0  0  0  0  0  0           0  0  0
    6.4292   -5.1542    0.0000 C   0  0  0  0  0  0           0  0  0
    4.6042   -6.0750    0.0000 C   0  0  0  0  0  0           0  0  0
   10.4542   -5.2667    0.0000 C   0  0  0  0  0  0           0  0  0
   10.0417   -4.5500    0.0000 C   0  0  0  0  0  0           0  0  0
   10.0417   -5.9792    0.0000 C   0  0  0  0  0  0           0  0  0
    5.3667   -6.3875    0.0000 C   0  0  0  0  0  0           0  0  0
   11.2792   -5.2667    0.0000 F   0  0  0  0  0  0           0  0  0
    2.8042   -3.6667    0.0000 C   0  0  0  0  0  0           0  0  0
    1.4042   -3.4167    0.0000 C   0  0  0  0  0  0           0  0  0
    0.7042   -3.8542    0.0000 C   0  0  0  0  0  0           0  0  0
    0.3167   -5.2250    0.0000 C   0  0  0  0  0  0           0  0  0
    1.5500   -2.6125    0.0000 C   0  0  0  0  0  0           0  0  0
   -0.0833   -3.6250    0.0000 C   0  0  0  0  0  0           0  0  0
   -0.4750   -5.0000    0.0000 C   0  0  0  0  0  0           0  0  0
    2.9542   -2.8625    0.0000 C   0  0  0  0  0  0           0  0  0
    2.3167   -2.3292    0.0000 C   0  0  0  0  0  0           0  0  0
   -0.6750   -4.1917    0.0000 C   0  0  0  0  0  0           0  0  0
  2  1  1  0     0  0
  3  2  1  0     0  0
  4  6  1  0     0  0
  5  1  2  0     0  0
  6  1  1  0     0  0
  7 14  1  0     0  0
  8 25  1  0     0  0
  9  2  2  0     0  0
 10  7  1  0     0  0
 11  4  2  0     0  0
 12  5  1  0     0  0
 13  5  1  0     0  0
 14 20  1  0     0  0
 15 19  1  0     0  0
 16  3  1  0     0  0
 17 10  1  0     0  0
 18 10  2  0     0  0
 19  8  1  0     0  0
 20  8  1  0     0  0
 21 16  1  0     0  0
 22 24  2  0     0  0
 23 17  2  0     0  0
 24 18  1  0     0  0
 25 21  1  0     0  0
 26 22  1  0     0  0
 27 13  1  0     0  0
 28 13  2  0     0  0
 29 12  2  0     0  0
 30 12  1  0     0  0
 31 28  1  0     0  0
 32 29  1  0     0  0
 33 30  2  0     0  0
 34 27  2  0     0  0
 35 31  2  0     0  0
 36 33  1  0     0  0
  3  4  1  0     0  0
 35 34  1  0     0  0
 36 32  2  0     0  0
  7 15  1  0     0  0
 22 23  1  0     0  0
M  END