
  SciTegic12011114592D

 28 30  0  0  0  0            999 V2000
   -4.3806  -23.4750    0.0000 C   0  0
   -4.3818  -24.3023    0.0000 C   0  0
   -3.6669  -24.7152    0.0000 C   0  0
   -3.6687  -23.0622    0.0000 C   0  0
   -2.9534  -23.4713    0.0000 C   0  0
   -2.9546  -24.3044    0.0000 C   0  0
   -2.2377  -24.7197    0.0000 C   0  0
   -1.5150  -24.3065    0.0000 C   0  0
   -1.5138  -23.4734    0.0000 C   0  0
   -2.2353  -23.0535    0.0000 O   0  0
   -2.2400  -25.5447    0.0000 O   0  0
   -0.8000  -23.0652    0.0000 C   0  0
   -0.0863  -23.4812    0.0000 C   0  0
    0.6287  -23.0712    0.0000 C   0  0
    0.6312  -22.2453    0.0000 C   0  0
   -0.0873  -21.8312    0.0000 C   0  0
   -0.7994  -22.2436    0.0000 C   0  0
   -3.6672  -25.5402    0.0000 O   0  0
   -5.0952  -23.0626    0.0000 O   0  0
   -3.6712  -22.2372    0.0000 C   0  0
   -2.9580  -21.8226    0.0000 C   0  0
   -2.9604  -20.9976    0.0000 C   0  0
   -2.2423  -22.2329    0.0000 C   0  0
   -2.2472  -20.5829    0.0000 C   0  0
   -2.2497  -19.7579    0.0000 C   0  0
   -1.5364  -19.3433    0.0000 C   0  0
   -1.5389  -18.5183    0.0000 C   0  0
   -0.8207  -19.7537    0.0000 C   0  0
 13 14  1  0
  1  2  2  0
 14 15  2  0
  5  4  2  0
 15 16  1  0
  4  1  1  0
 16 17  2  0
 17 12  1  0
  9 12  1  0
  5 10  1  0
  3 18  1  0
  6  7  1  0
  1 19  1  0
  7  8  1  0
  4 20  1  0
  8  9  2  0
 20 21  2  0
  9 10  1  0
 21 22  1  0
  5  6  1  0
 21 23  1  0
  7 11  2  0
 22 24  1  0
 24 25  1  0
  2  3  1  0
 25 26  2  0
 12 13  2  0
 26 27  1  0
  3  6  2  0
 26 28  1  0
M  END