
          05080814042D 1   1.00000     0.00000     0

 34 38  0     1  0            999 V2000
    7.6219  -13.0560    0.0000 C   0  0  0  0  0  0           0  0  0
    6.9113  -13.4708    0.0000 C   0  0  0  0  0  0           0  0  0
    6.9183  -14.2971    0.0000 C   0  0  0  0  0  0           0  0  0
    7.6320  -14.7005    0.0000 C   0  0  0  0  0  0           0  0  0
    8.3351  -13.4632    0.0000 C   0  0  0  0  0  0           0  0  0
    8.3412  -14.2907    0.0000 C   0  0  0  0  0  0           0  0  0
    9.0570  -14.6971    0.0000 C   0  0  0  0  0  0           0  0  0
    9.0449  -13.0418    0.0000 C   0  0  0  0  0  0           0  0  0
    9.7653  -13.4527    0.0000 C   0  0  2  0  0  0           0  0  0
    9.7698  -14.2822    0.0000 C   0  0  2  0  0  0           0  0  0
   10.4866  -14.6908    0.0000 N   0  0  3  0  0  0           0  0  0
   11.2033  -14.2744    0.0000 C   0  0  0  0  0  0           0  0  0
   11.1987  -13.4449    0.0000 C   0  0  1  0  0  0           0  0  0
   10.4775  -13.0317    0.0000 C   0  0  0  0  0  0           0  0  0
    9.7574  -12.6239    0.0000 H   0  0  0  0  0  0           0  0  0
    9.7616  -15.1069    0.0000 H   0  0  0  0  0  0           0  0  0
   11.9113  -13.0292    0.0000 C   0  0  0  0  0  0           0  0  0
   12.6276  -13.4385    0.0000 N   0  0  3  0  0  0           0  0  0
   11.9076  -12.2043    0.0000 O   0  0  0  0  0  0           0  0  0
   12.6253  -14.2665    0.0000 C   0  0  0  0  0  0           0  0  0
   13.3374  -14.6758    0.0000 C   0  0  0  0  0  0           0  0  0
   14.0523  -14.2636    0.0000 C   0  0  0  0  0  0           0  0  0
   14.0506  -13.4377    0.0000 C   0  0  0  0  0  0           0  0  0
   13.3339  -13.0239    0.0000 C   0  0  0  0  0  0           0  0  0
    7.6180  -12.2311    0.0000 O   0  0  0  0  0  0           0  0  0
    6.9016  -11.8220    0.0000 C   0  0  0  0  0  0           0  0  0
   10.4899  -15.5157    0.0000 C   0  0  0  0  0  0           0  0  0
   14.7671  -14.6756    0.0000 C   0  0  0  0  0  0           0  0  0
   14.7632  -15.4997    0.0000 C   0  0  0  0  0  0           0  0  0
   15.4770  -15.9116    0.0000 C   0  0  0  0  0  0           0  0  0
   16.1920  -15.4986    0.0000 C   0  0  0  0  0  0           0  0  0
   16.1888  -14.6694    0.0000 C   0  0  0  0  0  0           0  0  0
   15.4744  -14.2612    0.0000 C   0  0  0  0  0  0           0  0  0
   16.9073  -15.9096    0.0000 Cl  0  0  0  0  0  0           0  0  0
 10 16  1  1     0  0
  6  7  1  0     0  0
 13 17  1  1     0  0
  7 10  1  0     0  0
 17 18  1  0     0  0
  9  8  1  0     0  0
 17 19  2  0     0  0
 18 20  1  0     0  0
  9 10  1  0     0  0
  3  4  2  0     0  0
  4  6  1  0     0  0
  5  6  2  0     0  0
  1  2  2  0     0  0
 18 24  1  0     0  0
 20 21  1  0     0  0
 21 22  1  0     0  0
 22 23  2  0     0  0
 23 24  1  0     0  0
  5  1  1  0     0  0
  1 25  1  0     0  0
  2  3  1  0     0  0
 25 26  1  0     0  0
  9 14  1  0     0  0
 11 27  1  0     0  0
 10 11  1  0     0  0
 22 28  1  0     0  0
 11 12  1  0     0  0
 28 29  2  0     0  0
 12 13  1  0     0  0
 29 30  1  0     0  0
 13 14  1  0     0  0
 30 31  2  0     0  0
 31 32  1  0     0  0
  9 15  1  6     0  0
 32 33  2  0     0  0
 33 28  1  0     0  0
  5  8  1  0     0  0
 31 34  1  0     0  0
M  END