
          11280714512D 1   1.00000     0.00000     0

 34 37  0     0  0            999 V2000
   -0.7625   -2.2500    0.0000 C   0  0  0  0  0  0           0  0  0
   -0.1000   -1.7667    0.0000 N   0  0  0  0  0  0           0  0  0
   -1.0333   -1.5750    0.0000 C   0  0  3  0  0  0           0  0  0
    0.5667   -2.2500    0.0000 C   0  0  0  0  0  0           0  0  0
   -0.8833   -0.8875    0.0000 C   0  0  3  0  0  0           0  0  0
   -2.3375   -1.6542    0.0000 C   0  0  3  0  0  0           0  0  0
   -2.0000   -2.4500    0.0000 O   0  0  0  0  0  0           0  0  0
   -0.5125   -3.0375    0.0000 O   0  0  0  0  0  0           0  0  0
   -1.6625   -1.1125    0.0000 C   0  0  3  0  0  0           0  0  0
    0.3125   -3.0375    0.0000 C   0  0  0  0  0  0           0  0  0
   -0.4000   -1.3625    0.0000 C   0  0  0  0  0  0           0  0  0
    1.2375   -1.9750    0.0000 C   0  0  0  0  0  0           0  0  0
    0.0667   -0.8875    0.0000 C   0  0  0  0  0  0           0  0  0
   -2.2583    0.5875    0.0000 C   0  0  0  0  0  0           0  0  0
   -2.6125   -1.1167    0.0000 C   0  0  0  0  0  0           0  0  0
   -2.1375   -0.6375    0.0000 C   0  0  0  0  0  0           0  0  0
   -0.3625   -0.1792    0.0000 C   0  0  0  0  0  0           0  0  0
    1.3250   -1.2250    0.0000 O   0  0  0  0  0  0           0  0  0
   -3.0583    0.3750    0.0000 O   0  0  0  0  0  0           0  0  0
    1.8875   -2.3792    0.0000 N   0  0  0  0  0  0           0  0  0
   -0.9500    0.4083    0.0000 C   0  0  0  0  0  0           0  0  0
   -1.6708   -0.0042    0.0000 C   0  0  0  0  0  0           0  0  0
   -2.0458    1.3875    0.0000 O   0  0  0  0  0  0           0  0  0
    0.9000   -0.8625    0.0000 C   0  0  0  0  0  0           0  0  0
    0.0375    0.5500    0.0000 C   0  0  0  0  0  0           0  0  0
    2.6792   -2.1667    0.0000 C   0  0  0  0  0  0           0  0  0
    3.2667   -2.7417    0.0000 C   0  0  0  0  0  0           0  0  0
    6.0292   -3.4750    0.0000 C   0  0  0  0  0  0           0  0  0
    5.4417   -2.8917    0.0000 C   0  0  0  0  0  0           0  0  0
    4.0625   -2.5292    0.0000 C   0  0  0  0  0  0           0  0  0
    4.6500   -3.1042    0.0000 C   0  0  0  0  0  0           0  0  0
    1.2917   -0.1375    0.0000 C   0  0  0  0  0  0           0  0  0
    6.8250   -3.2542    0.0000 C   0  0  0  0  0  0           0  0  0
    0.8625    0.5625    0.0000 C   0  0  0  0  0  0           0  0  0
  2  1  2  0     0  0
  3  1  1  0     0  0
  4  2  1  0     0  0
  5  3  1  0     0  0
  6  3  1  0     0  0
  7  6  1  0     0  0
  8  1  1  0     0  0
  9  5  1  0     0  0
 10  8  1  0     0  0
 11  5  1  0     0  0
 12  4  1  0     0  0
 13 11  1  0     0  0
 14 22  1  0     0  0
 15  6  1  0     0  0
 16 15  1  0     0  0
 17 13  2  0     0  0
 18 12  2  0     0  0
 19 14  2  0     0  0
 20 12  1  0     0  0
 21 17  1  0     0  0
 22 21  1  0     0  0
 23 14  1  0     0  0
 24 13  1  0     0  0
 25 17  1  0     0  0
 26 20  1  0     0  0
 27 26  1  0     0  0
 28 29  1  0     0  0
 29 31  1  0     0  0
 30 27  1  0     0  0
 31 30  1  0     0  0
 32 24  2  0     0  0
 33 28  1  0     0  0
 34 32  1  0     0  0
  4 10  2  0     0  0
  7  9  1  0     0  0
 16  9  1  0     0  0
 25 34  2  0     0  0
M  END