
          11280715352D 1   1.00000     0.00000     0

 30 32  0     0  0            999 V2000
    1.3250   -1.4792    0.0000 C   0  0  0  0  0  0           0  0  0
    1.0375   -2.0292    0.0000 C   0  0  0  0  0  0           0  0  0
    0.4417   -2.1375    0.0000 N   0  0  3  0  0  0           0  0  0
    1.0542   -0.9042    0.0000 C   0  0  3  0  0  0           0  0  0
    0.4625   -0.7917    0.0000 S   0  0  0  0  0  0           0  0  0
    1.3292    1.1708    0.0000 N   0  3  0  0  0  0           0  0  0
    0.0792   -1.7750    0.0000 C   0  0  0  0  0  0           0  0  0
    0.0792   -1.1625    0.0000 C   0  0  0  0  0  0           0  0  0
    1.9292   -1.4875    0.0000 C   0  0  0  0  0  0           0  0  0
    1.4250   -0.4250    0.0000 C   0  0  0  0  0  0           0  0  0
    1.5625    0.6125    0.0000 C   0  0  0  0  0  0           0  0  0
    0.2667   -2.7042    0.0000 C   0  0  0  0  0  0           0  0  0
    1.1917    0.1333    0.0000 C   0  0  0  0  0  0           0  0  0
    1.6917    1.6458    0.0000 O   0  5  0  0  0  0           0  0  0
    0.7375    1.2458    0.0000 O   0  0  0  0  0  0           0  0  0
    2.2417   -0.9667    0.0000 O   0  0  0  0  0  0           0  0  0
   -0.3208   -2.8375    0.0000 C   0  0  0  0  0  0           0  0  0
    1.4000   -2.5250    0.0000 C   0  0  0  0  0  0           0  0  0
   -0.5000   -3.4125    0.0000 N   0  0  3  0  0  0           0  0  0
    2.2250   -2.0167    0.0000 O   0  0  0  0  0  0           0  0  0
    2.0250   -0.5042    0.0000 C   0  0  0  0  0  0           0  0  0
   -0.4458   -2.0750    0.0000 C   0  0  0  0  0  0           0  0  0
   -0.4458   -0.8542    0.0000 C   0  0  0  0  0  0           0  0  0
    2.1667    0.5333    0.0000 C   0  0  0  0  0  0           0  0  0
    2.3917   -0.0250    0.0000 C   0  0  0  0  0  0           0  0  0
   -1.0833   -3.5417    0.0000 C   0  0  0  0  0  0           0  0  0
   -0.0958   -3.8542    0.0000 C   0  0  0  0  0  0           0  0  0
    2.8292   -2.0250    0.0000 C   0  0  0  0  0  0           0  0  0
   -0.9708   -1.7667    0.0000 C   0  0  0  0  0  0           0  0  0
   -0.9708   -1.1625    0.0000 C   0  0  0  0  0  0           0  0  0
  2  1  2  0     0  0
  3  2  1  0     0  0
  4  1  1  0     0  0
  5  4  1  0     0  0
  6 11  1  0     0  0
  7  3  1  0     0  0
  8  5  1  0     0  0
  9  1  1  0     0  0
 10  4  1  0     0  0
 11 13  2  0     0  0
 12  3  1  0     0  0
 13 10  1  0     0  0
 14  6  1  0     0  0
 15  6  2  0     0  0
 16  9  2  0     0  0
 17 12  1  0     0  0
 18  2  1  0     0  0
 19 17  1  0     0  0
 20  9  1  0     0  0
 21 10  2  0     0  0
 22  7  2  0     0  0
 23  8  2  0     0  0
 24 25  2  0     0  0
 25 21  1  0     0  0
 26 19  1  0     0  0
 27 19  1  0     0  0
 28 20  1  0     0  0
 29 22  1  0     0  0
 30 23  1  0     0  0
  8  7  1  0     0  0
 24 11  1  0     0  0
 30 29  2  0     0  0
M  CHG  2   6   1  14  -1
M  END