
          11280714502D 1   1.00000     0.00000     0

 30 32  0     0  0            999 V2000
    8.5875   -6.7250    0.0000 N   0  0  0  0  0  0           0  0  0
    8.9917   -6.0042    0.0000 C   0  0  0  0  0  0           0  0  0
    7.7792   -6.5542    0.0000 C   0  0  0  0  0  0           0  0  0
    4.8417   -5.7542    0.0000 C   0  0  0  0  0  0           0  0  0
    8.4375   -5.3917    0.0000 S   0  0  0  0  0  0           0  0  0
   -0.1625   -7.0125    0.0000 C   0  0  3  0  0  0           0  0  0
    7.6917   -5.7375    0.0000 C   0  0  3  0  0  0           0  0  0
    4.1250   -5.3500    0.0000 C   0  0  0  0  0  0           0  0  0
    3.4125   -5.7625    0.0000 N   0  0  0  0  0  0           0  0  0
    0.5542   -6.6000    0.0000 C   0  0  0  0  0  0           0  0  0
    4.8417   -6.5792    0.0000 C   0  0  0  0  0  0           0  0  0
    5.5417   -5.3417    0.0000 C   0  0  0  0  0  0           0  0  0
    9.8167   -5.9125    0.0000 O   0  0  0  0  0  0           0  0  0
    6.9750   -5.3292    0.0000 C   0  0  0  0  0  0           0  0  0
    7.1667   -7.1125    0.0000 O   0  0  0  0  0  0           0  0  0
    6.2625   -5.7417    0.0000 C   0  0  0  0  0  0           0  0  0
    4.1167   -4.5250    0.0000 O   0  0  0  0  0  0           0  0  0
   -0.8750   -6.6000    0.0000 F   0  0  0  0  0  0           0  0  0
   -0.1625   -7.8375    0.0000 F   0  0  0  0  0  0           0  0  0
   -0.3750   -6.2167    0.0000 F   0  0  0  0  0  0           0  0  0
    5.5542   -6.9917    0.0000 C   0  0  0  0  0  0           0  0  0
    0.5542   -5.7750    0.0000 C   0  0  0  0  0  0           0  0  0
    1.2667   -7.0125    0.0000 C   0  0  0  0  0  0           0  0  0
    2.6917   -5.3542    0.0000 C   0  0  0  0  0  0           0  0  0
    6.2667   -6.5750    0.0000 C   0  0  0  0  0  0           0  0  0
    1.9792   -5.7667    0.0000 C   0  0  0  0  0  0           0  0  0
    1.9792   -6.6000    0.0000 C   0  0  0  0  0  0           0  0  0
    1.2667   -5.3542    0.0000 C   0  0  0  0  0  0           0  0  0
    4.1250   -6.9917    0.0000 O   0  0  0  0  0  0           0  0  0
    4.1292   -7.8167    0.0000 C   0  0  0  0  0  0           0  0  0
  2  1  1  0     0  0
  3  1  1  0     0  0
  4 12  1  0     0  0
  5  2  1  0     0  0
  6 10  1  0     0  0
  7  3  1  0     0  0
  8  4  1  0     0  0
  9  8  1  0     0  0
 10 22  2  0     0  0
 11 21  1  0     0  0
 12 16  2  0     0  0
 13  2  2  0     0  0
 14  7  1  0     0  0
 15  3  2  0     0  0
 16 14  1  0     0  0
 17  8  2  0     0  0
 18  6  1  0     0  0
 19  6  1  0     0  0
 20  6  1  0     0  0
 21 25  2  0     0  0
 22 28  1  0     0  0
 23 27  2  0     0  0
 24  9  1  0     0  0
 25 16  1  0     0  0
 26 24  1  0     0  0
 27 26  1  0     0  0
 28 26  2  0     0  0
 29 11  1  0     0  0
 30 29  1  0     0  0
  7  5  1  0     0  0
 11  4  2  0     0  0
 23 10  1  0     0  0
M  END