
          11280715322D 1   1.00000     0.00000     0

 35 38  0     0  0            999 V2000
    4.7750   -1.4375    0.0000 C   0  0  0  0  0  0           0  0  0
    4.7667   -0.8375    0.0000 C   0  0  0  0  0  0           0  0  0
    4.2542   -1.7375    0.0000 N   0  0  3  0  0  0           0  0  0
    3.7375   -0.8375    0.0000 N   0  0  3  0  0  0           0  0  0
    3.7375   -1.4375    0.0000 C   0  0  0  0  0  0           0  0  0
    5.3417   -1.6167    0.0000 N   0  0  0  0  0  0           0  0  0
    4.2542   -0.5375    0.0000 C   0  0  0  0  0  0           0  0  0
    5.3417   -0.6500    0.0000 N   0  0  0  0  0  0           0  0  0
    5.7000   -1.1292    0.0000 C   0  0  0  0  0  0           0  0  0
    1.1292   -5.3167    0.0000 S   0  0  3  0  0  0           0  0  0
    1.6500   -5.0250    0.0000 C   0  0  0  0  0  0           0  0  0
    3.2167   -1.7375    0.0000 O   0  0  0  0  0  0           0  0  0
    0.6125   -5.0167    0.0000 O   0  0  0  0  0  0           0  0  0
    1.1250   -5.9167    0.0000 O   0  0  0  0  0  0           0  0  0
    4.2500    0.0625    0.0000 O   0  0  0  0  0  0           0  0  0
    0.6042   -5.6167    0.0000 F   0  0  0  0  0  0           0  0  0
    6.3000   -1.1292    0.0000 C   0  0  3  0  0  0           0  0  0
    4.2542   -2.3375    0.0000 C   0  0  0  0  0  0           0  0  0
    3.2167   -0.5375    0.0000 C   0  0  0  0  0  0           0  0  0
    1.6542   -4.4250    0.0000 C   0  0  0  0  0  0           0  0  0
    2.1667   -5.3250    0.0000 C   0  0  0  0  0  0           0  0  0
    2.1750   -4.1250    0.0000 C   0  0  0  0  0  0           0  0  0
    2.6917   -5.0292    0.0000 C   0  0  0  0  0  0           0  0  0
    2.6917   -4.4292    0.0000 C   0  0  0  0  0  0           0  0  0
    6.6000   -1.6417    0.0000 C   0  0  0  0  0  0           0  0  0
    6.5917   -0.6042    0.0000 C   0  0  0  0  0  0           0  0  0
    3.2042   -4.1292    0.0000 C   0  0  0  0  0  0           0  0  0
    3.2125    0.0625    0.0000 C   0  0  0  0  0  0           0  0  0
    3.7292   -2.6292    0.0000 C   0  0  0  0  0  0           0  0  0
    3.2125   -3.5292    0.0000 C   0  0  0  0  0  0           0  0  0
    3.7292   -3.2292    0.0000 C   0  0  0  0  0  0           0  0  0
    2.6917    0.3583    0.0000 C   0  0  0  0  0  0           0  0  0
    7.1917   -0.6042    0.0000 C   0  0  0  0  0  0           0  0  0
    7.2000   -1.6417    0.0000 C   0  0  0  0  0  0           0  0  0
    7.4917   -1.1250    0.0000 C   0  0  0  0  0  0           0  0  0
  2  1  2  0     0  0
  3  1  1  0     0  0
  4  5  1  0     0  0
  5  3  1  0     0  0
  6  1  1  0     0  0
  7  2  1  0     0  0
  8  2  1  0     0  0
  9  6  1  0     0  0
 10 11  1  0     0  0
 11 21  1  0     0  0
 12  5  2  0     0  0
 13 10  2  0     0  0
 14 10  2  0     0  0
 15  7  2  0     0  0
 16 10  1  0     0  0
 17  9  1  0     0  0
 18  3  1  0     0  0
 19  4  1  0     0  0
 20 22  1  0     0  0
 21 23  2  0     0  0
 22 24  2  0     0  0
 23 24  1  0     0  0
 24 27  1  0     0  0
 25 17  1  0     0  0
 26 17  1  0     0  0
 27 30  1  0     0  0
 28 19  1  0     0  0
 29 18  1  0     0  0
 30 31  1  0     0  0
 31 29  1  0     0  0
 32 28  1  0     0  0
 33 26  1  0     0  0
 34 25  1  0     0  0
 35 33  1  0     0  0
  8  9  2  0     0  0
  4  7  1  0     0  0
 35 34  1  0     0  0
 11 20  2  0     0  0
M  END