
          11280715372D 1   1.00000     0.00000     0

 37 38  0     1  0            999 V2000
    2.8292   -2.8667    0.0000 P   0  0  3  0  0  0           0  0  0
    5.9667   -5.0667    0.0000 C   0  0  0  0  0  0           0  0  0
    7.2792   -4.1792    0.0000 C   0  0  0  0  0  0           0  0  0
    6.3167   -4.5917    0.0000 N   0  0  0  0  0  0           0  0  0
    7.8792   -4.2417    0.0000 N   0  0  0  0  0  0           0  0  0
    6.9292   -4.6542    0.0000 C   0  0  1  0  0  0           0  0  0
    5.3667   -5.0042    0.0000 C   0  0  1  0  0  0           0  0  0
    5.0042   -5.4792    0.0000 N   0  0  0  0  0  0           0  0  0
    4.4042   -5.4167    0.0000 C   0  0  0  0  0  0           0  0  0
    3.4167   -2.7542    0.0000 O   0  0  0  0  0  0           0  0  0
    8.2417   -3.7542    0.0000 C   0  0  1  0  0  0           0  0  0
    2.7167   -2.2792    0.0000 O   0  0  0  0  0  0           0  0  0
    8.8292   -3.8292    0.0000 C   0  0  0  0  0  0           0  0  0
    7.0417   -3.6292    0.0000 O   0  0  0  0  0  0           0  0  0
    6.2167   -5.6292    0.0000 O   0  0  0  0  0  0           0  0  0
    5.1292   -4.4417    0.0000 C   0  0  0  0  0  0           0  0  0
    7.1667   -5.2167    0.0000 C   0  0  0  0  0  0           0  0  0
    4.1667   -4.8667    0.0000 O   0  0  0  0  0  0           0  0  0
    2.2292   -2.9917    0.0000 O   0  0  0  0  0  0           0  0  0
    2.9417   -3.4667    0.0000 O   0  0  0  0  0  0           0  0  0
    9.3167   -3.4792    0.0000 C   0  0  0  0  0  0           0  0  0
    8.9042   -4.4292    0.0000 C   0  0  0  0  0  0           0  0  0
    3.8167   -3.2167    0.0000 C   0  0  0  0  0  0           0  0  0
    4.6042   -4.1417    0.0000 C   0  0  0  0  0  0           0  0  0
    9.8667   -3.7292    0.0000 C   0  0  0  0  0  0           0  0  0
    9.4417   -4.6792    0.0000 C   0  0  0  0  0  0           0  0  0
    9.9292   -4.3167    0.0000 C   0  0  0  0  0  0           0  0  0
    4.0042   -4.2417    0.0000 C   0  0  0  0  0  0           0  0  0
    4.8042   -3.5667    0.0000 C   0  0  0  0  0  0           0  0  0
    3.6167   -3.7917    0.0000 C   0  0  0  0  0  0           0  0  0
    4.4042   -3.1167    0.0000 C   0  0  0  0  0  0           0  0  0
    7.5417   -5.6792    0.0000 C   0  0  3  0  0  0           0  0  0
    4.0542   -5.8917    0.0000 C   0  0  0  0  0  0           0  0  0
    8.0042   -3.2167    0.0000 C   0  0  0  0  0  0           0  0  0
   10.4792   -4.5667    0.0000 C   0  0  0  0  0  0           0  0  0
    8.1292   -5.5917    0.0000 C   0  0  0  0  0  0           0  0  0
    7.3167   -6.2417    0.0000 C   0  0  0  0  0  0           0  0  0
  2  7  1  0     0  0
  3  6  1  0     0  0
  4  2  1  0     0  0
  5  3  1  0     0  0
  6  4  1  0     0  0
  7 16  1  1     0  0
  8  7  1  0     0  0
  9  8  1  0     0  0
 10  1  1  0     0  0
 11  5  1  0     0  0
 12  1  2  0     0  0
 13 11  1  0     0  0
 14  3  2  0     0  0
 15  2  2  0     0  0
 16 24  1  0     0  0
  6 17  1  6     0  0
 18  9  2  0     0  0
 19  1  1  0     0  0
 20  1  1  0     0  0
 21 13  2  0     0  0
 22 13  1  0     0  0
 23 10  1  0     0  0
 24 29  1  0     0  0
 25 21  1  0     0  0
 26 22  2  0     0  0
 27 26  1  0     0  0
 28 30  1  0     0  0
 29 31  2  0     0  0
 30 23  2  0     0  0
 31 23  1  0     0  0
 32 17  1  0     0  0
 33  9  1  0     0  0
 11 34  1  6     0  0
 35 27  1  0     0  0
 36 32  1  0     0  0
 37 32  1  0     0  0
 28 24  2  0     0  0
 27 25  2  0     0  0
M  END