
  SciTegic01061111512D

 24 25  0  0  0  0            999 V2000
   10.6997  -18.4892    0.0000 C   0  0  2  0  0  0
   10.6997  -19.3142    0.0000 C   0  0  1  0  0  0
   11.4123  -19.7204    0.0000 C   0  0  1  0  0  0
   12.1248  -19.3142    0.0000 C   0  0  2  0  0  0
   12.1248  -18.4892    0.0000 C   0  0  1  0  0  0
   11.4123  -18.0705    0.0000 O   0  0
   12.8410  -18.0768    0.0000 S   0  0
   13.5548  -18.4934    0.0000 C   0  0
   12.8392  -19.7256    0.0000 O   0  0
   11.4123  -20.5454    0.0000 N   0  0
   10.7464  -21.0360    0.0000 N   0  0
   11.0042  -21.8208    0.0000 N   0  0
   11.8292  -21.8208    0.0000 C   0  0
   12.0827  -21.0360    0.0000 C   0  0
   12.3117  -22.4848    0.0000 C   0  0
   11.9779  -23.2388    0.0000 O   0  0
   13.1321  -22.3990    0.0000 N   0  0
   13.6188  -23.0671    0.0000 C   0  0
    9.9853  -19.7256    0.0000 O   0  0
    9.9835  -18.0768    0.0000 C   0  0
    9.9811  -17.2518    0.0000 O   0  0
   14.4393  -22.9812    0.0000 C   0  0
   14.9259  -23.6494    0.0000 C   0  0
   15.7464  -23.5635    0.0000 O   0  0
  5  6  1  0
 11 12  2  0
 12 13  1  0
 13 14  2  0
 14 10  1  0
  5  7  1  1
 13 15  1  0
  1  2  1  0
 15 16  2  0
  7  8  1  0
 15 17  1  0
  1  6  1  0
 17 18  1  0
  4  9  1  6
  2 19  1  1
  2  3  1  0
  1 20  1  1
  3 10  1  1
 20 21  1  0
 10 11  1  0
 18 22  1  0
  3  4  1  0
 22 23  1  0
  4  5  1  0
 23 24  1  0
M  END