
  SciTegic01161211262D

148136  0  0  0  0            999 V2000
    4.7686   -1.3728    0.0000 O   0  0
    4.0523   -1.7821    0.0000 C   0  0  2  0  0  0
    4.0523   -2.6089    0.0000 C   0  0  2  0  0  0
    3.3401   -3.0181    0.0000 C   0  0  2  0  0  0
    3.3401   -3.8450    0.0000 O   0  0
    2.6279   -2.6089    0.0000 C   0  0  2  0  0  0
    1.9116   -3.0181    0.0000 O   0  0
    2.6279   -1.7821    0.0000 C   0  0  2  0  0  0
    3.3401   -1.3728    0.0000 O   0  0
    1.9116   -1.3728    0.0000 C   0  0
    1.9116   -0.5459    0.0000 O   0  0
    1.1952   -0.1325    0.0000 S   0  0
    1.6086    0.5797    0.0000 O   0  0
    0.7860   -0.8489    0.0000 O   0  0
    0.4831    0.2767    0.0000 O   0  5
    1.1952   -2.6089    0.0000 S   0  0
    0.7860   -3.3211    0.0000 O   0  0
    1.6086   -1.8925    0.0000 O   0  0
    0.4831   -2.1955    0.0000 O   0  5
    2.6279   -4.2542    0.0000 S   0  0
    3.0372   -4.9706    0.0000 O   0  0
    2.2145   -3.5421    0.0000 O   0  0
    1.9116   -4.6677    0.0000 O   0  5
    4.7686   -0.5459    0.0000 C   0  0
    4.7752   -3.0274    0.0000 O   0  0
    6.1859   -5.7603    0.0000 O   0  0
    6.1859   -6.8319    0.0000 C   0  0  2  0  0  0
    6.9023   -7.2410    0.0000 C   0  0  2  0  0  0
    7.6144   -6.8319    0.0000 O   0  0
    6.9023   -8.0679    0.0000 C   0  0  1  0  0  0
    7.6144   -8.4772    0.0000 O   0  0
    6.1859   -8.4772    0.0000 C   0  0  2  0  0  0
    6.1859   -9.3040    0.0000 O   0  0
    5.4737   -8.0679    0.0000 C   0  0  2  0  0  0
    5.4737   -7.2410    0.0000 O   0  0
    4.5467   -8.6038    0.0000 C   0  0
    3.8345   -8.1902    0.0000 O   0  0
    3.1182   -8.6038    0.0000 S   0  0
    3.5316   -9.3158    0.0000 O   0  0
    2.7047   -7.8873    0.0000 O   0  0
    2.4017   -9.0129    0.0000 O   0  5
    5.4737   -9.7175    0.0000 S   0  0
    5.8871  -10.4296    0.0000 O   0  0
    5.0603   -9.0011    0.0000 O   0  0
    4.7615  -10.1266    0.0000 O   0  5
    7.6144   -6.0050    0.0000 S   0  0
    6.7918   -6.0050    0.0000 O   0  0
    8.4412   -6.0050    0.0000 O   0  0
    7.6144   -5.1823    0.0000 O   0  5
    8.3308   -8.0679    0.0000 C   0  0  2  0  0  0
    9.0429   -8.4772    0.0000 C   0  0  2  0  0  0
    9.0429   -9.3040    0.0000 O   0  0
    9.7551   -8.0679    0.0000 C   0  0  2  0  0  0
   10.6863   -8.6038    0.0000 O   0  0
    9.7551   -7.2410    0.0000 C   0  0  2  0  0  0
   10.4714   -6.8319    0.0000 O   0  0
    9.0429   -6.8319    0.0000 C   0  0  2  0  0  0
    8.3308   -7.2410    0.0000 O   0  0
    9.0429   -5.7603    0.0000 C   0  0
    9.7551   -5.3469    0.0000 O   0  0
    9.7551   -4.5242    0.0000 S   0  0
    8.9324   -4.5242    0.0000 O   0  0
   10.5820   -4.5242    0.0000 O   0  0
    9.7551   -3.6973    0.0000 O   0  5
   10.4714   -6.0050    0.0000 S   0  0
    9.6446   -6.0050    0.0000 O   0  0
   11.2940   -6.0050    0.0000 O   0  0
   10.4714   -5.1823    0.0000 O   0  5
    9.7551   -9.7175    0.0000 S   0  0
   10.1685   -9.0011    0.0000 O   0  0
    9.3458  -10.4296    0.0000 O   0  0
   10.4714  -10.1266    0.0000 O   0  5
   11.6134   -8.0679    0.0000 C   0  0  2  0  0  0
   12.3256   -8.4772    0.0000 C   0  0  2  0  0  0
   12.3256   -9.3040    0.0000 O   0  0
   13.0419   -8.0679    0.0000 C   0  0  2  0  0  0
   13.7541   -8.4772    0.0000 O   0  0
   13.0419   -7.2410    0.0000 C   0  0  2  0  0  0
   13.8135   -6.9601    0.0000 O   0  0
   12.3256   -6.8319    0.0000 C   0  0  2  0  0  0
   11.6134   -7.2410    0.0000 O   0  0
   12.3256   -6.0050    0.0000 C   0  0
   12.9576   -5.4784    0.0000 O   0  0
   12.8138   -4.6622    0.0000 S   0  0
   12.0061   -4.8061    0.0000 O   0  0
   13.6256   -4.5226    0.0000 O   0  0
   12.6699   -3.8547    0.0000 O   0  5
   13.9574   -6.1483    0.0000 S   0  0
   13.1456   -6.0044    0.0000 O   0  0
   14.7692   -6.2920    0.0000 O   0  0
   14.1013   -5.3363    0.0000 O   0  5
   14.4663   -8.0679    0.0000 S   0  0
   14.0570   -7.3516    0.0000 O   0  0
   14.8797   -8.7801    0.0000 O   0  0
   15.1826   -7.6545    0.0000 O   0  5
   13.0419   -9.7175    0.0000 S   0  0
   13.4512   -9.0011    0.0000 O   0  0
   12.6285  -10.4296    0.0000 O   0  0
   13.7541  -10.1266    0.0000 O   0  5
    6.9506   -8.8927    0.0000 H   0  0
   11.6251   -8.8905    0.0000 H   0  0
    4.7700   -4.1030    0.0000 C   0  0  2  0  0  0
    5.4837   -4.5169    0.0000 C   0  0  2  0  0  0
    6.1984   -4.1123    0.0000 O   0  0
    5.4783   -5.3437    0.0000 C   0  0  1  0  0  0
    4.7593   -5.7483    0.0000 C   0  0  2  0  0  0
    4.7540   -6.5751    0.0000 O   0  0
    4.0498   -5.3345    0.0000 C   0  0  2  0  0  0
    4.0551   -4.5076    0.0000 O   0  0
    3.1193   -5.8643    0.0000 C   0  0
    2.4098   -5.4462    0.0000 O   0  0
    1.6908   -5.8550    0.0000 S   0  0
    2.0996   -6.5699    0.0000 O   0  0
    1.2820   -5.1360    0.0000 O   0  0
    0.9718   -6.2595    0.0000 O   0  5
    4.0391   -6.9840    0.0000 S   0  0
    4.4479   -7.6988    0.0000 O   0  0
    3.6303   -6.2649    0.0000 O   0  0
    3.3243   -7.3886    0.0000 O   0  5
    6.2037   -3.2854    0.0000 S   0  0
    5.3812   -3.2801    0.0000 O   0  0
    7.0306   -3.2908    0.0000 O   0  0
    6.2091   -2.4628    0.0000 O   0  5
    4.0644   -3.6754    0.0000 H   0  0
    5.5213   -6.1687    0.0000 H   0  0
    5.4921   -0.1283    0.0000 C   0  0
    5.4921    0.7070    0.0000 C   0  0
    6.2154    1.1247    0.0000 C   0  0
    6.2154    1.9600    0.0000 C   0  0
    6.9388    2.3776    0.0000 C   0  0
    6.9388    3.2129    0.0000 C   0  0
    7.6622    3.6256    0.0000 C   0  0
   15.0625   -5.3750    0.0000 Na  0  3
   16.1250   -7.7812    0.0000 Na  0  3
   14.5625  -10.3125    0.0000 Na  0  3
   10.9375  -10.5000    0.0000 Na  0  3
   11.2188   -5.2813    0.0000 Na  0  3
   13.2500   -3.8438    0.0000 Na  0  3
   10.4375   -3.6875    0.0000 Na  0  3
    8.2812   -5.1563    0.0000 Na  0  3
    7.5000   -3.0625    0.0000 Na  0  3
    0.0313    1.1250    0.0000 Na  0  3
   -0.5000   -1.5937    0.0000 Na  0  3
    1.4375   -4.0625    0.0000 Na  0  3
    0.6875   -6.9687    0.0000 Na  0  3
    2.6875   -6.7500    0.0000 Na  0  3
    2.4687   -9.9375    0.0000 Na  0  3
    4.7500  -10.5000    0.0000 Na  0  3
 32 33  1  6
 32 34  1  0
 34 35  1  0
 34 36  1  1
 36 37  1  0
 27 35  1  0
 38 39  2  0
 38 40  2  0
 38 41  1  0
 37 38  1  0
 42 43  2  0
 42 44  2  0
 42 45  1  0
 33 42  1  0
 46 47  2  0
 46 48  2  0
 46 49  1  0
 29 46  1  0
 50 51  1  0
 51 52  1  6
 51 53  1  0
 53 54  1  6
 53 55  1  0
 55 56  1  1
 55 57  1  0
 57 58  1  0
 57 59  1  6
 59 60  1  0
 50 58  1  0
 61 62  2  0
 61 63  2  0
 61 64  1  0
 60 61  1  0
 65 66  2  0
 65 67  2  0
 65 68  1  0
 56 65  1  0
 69 70  2  0
 69 71  2  0
 69 72  1  0
 52 69  1  0
 73 74  1  0
 74 75  1  6
 74 76  1  0
 76 77  1  6
 76 78  1  0
 78 79  1  1
 78 80  1  0
 80 81  1  0
 80 82  1  6
 82 83  1  0
 73 81  1  0
 84 85  2  0
 84 86  2  0
 84 87  1  0
 83 84  1  0
 88 89  2  0
 88 90  2  0
 88 91  1  0
 79 88  1  0
 92 93  2  0
 92 94  2  0
 92 95  1  0
 77 92  1  0
 96 97  2  0
 96 98  2  0
 96 99  1  0
 75 96  1  0
 54 73  1  0
 50 31  1  1
 27 26  1  6
 30100  1  6
 73101  1  6
  3 25  1  1
  2  1  1  6
  2  3  1  0
  3  4  1  0
  4  5  1  1
  4  6  1  0
  6  7  1  6
  6  8  1  0
  8  9  1  0
  8 10  1  1
 10 11  1  0
  2  9  1  0
 12 13  2  0
 12 14  2  0
 12 15  1  0
 11 12  1  0
 16 17  2  0
 16 18  2  0
 16 19  1  0
  7 16  1  0
 20 21  2  0
 20 22  2  0
 20 23  1  0
102103  1  0
103104  1  1
103105  1  0
105 26  1  0
105106  1  0
106107  1  6
106108  1  0
108109  1  0
108110  1  1
110111  1  0
102109  1  0
112113  2  0
112114  2  0
112115  1  0
111112  1  0
116117  2  0
116118  2  0
116119  1  0
107116  1  0
120121  2  0
120122  2  0
120123  1  0
104120  1  0
 25102  1  0
102124  1  1
105125  1  6
  5 20  1  0
 24126  1  0
  1 24  1  0
126127  1  0
 27 28  1  0
127128  1  0
 28 29  1  1
128129  1  0
 28 30  1  0
129130  1  0
 30 31  1  0
130131  1  0
 30 32  1  0
131132  1  0
M  CHG  8  15  -1  19  -1  23  -1  41  -1  45  -1  49  -1  64  -1  68  -1
M  CHG  8  72  -1  87  -1  91  -1  95  -1  99  -1 115  -1 119  -1 123  -1
M  CHG  8 133   1 134   1 135   1 136   1 137   1 138   1 139   1 140   1
M  CHG  8 141   1 142   1 143   1 144   1 145   1 146   1 147   1 148   1
M  END