
  CDK    5/12/10,14:52

 26 30  0  0  0  0  0  0  0  0999 V2000
    6.9074    2.1934    0.0000 N   0  0  0  0  0  0  0  0  0  0  0  0
    7.6278    2.6114    0.0000 C   0  0  0  0  0  0  0  0  0  0  0  0
    8.3420    2.1995    0.0000 N   0  0  0  0  0  0  0  0  0  0  0  0
    8.3420    1.3678    0.0000 C   0  0  0  0  0  0  0  0  0  0  0  0
    9.1269    1.1056    0.0000 N   0  0  0  0  0  0  0  0  0  0  0  0
    9.6149    1.7745    0.0000 C   0  0  0  0  0  0  0  0  0  0  0  0
    9.1269    2.4493    0.0000 N   0  0  0  0  0  0  0  0  0  0  0  0
    7.6278    0.9513    0.0000 C   0  0  0  0  0  0  0  0  0  0  0  0
    6.9077    1.3728    0.0000 C   0  0  0  0  0  0  0  0  0  0  0  0
    6.2907    0.8155    0.0000 N   0  0  0  0  0  0  0  0  0  0  0  0
    6.6305    0.0537    0.0000 N   0  0  0  0  0  0  0  0  0  0  0  0
    7.4481    0.1341    0.0000 C   0  0  0  0  0  0  0  0  0  0  0  0
   10.4389    1.7260    0.0000 C   0  0  0  0  0  0  0  0  0  0  0  0
   10.8613    1.0179    0.0000 C   0  0  0  0  0  0  0  0  0  0  0  0
   11.6690    1.2009    0.0000 C   0  0  0  0  0  0  0  0  0  0  0  0
   11.7417    2.0127    0.0000 C   0  0  0  0  0  0  0  0  0  0  0  0
   10.9825    2.3471    0.0000 O   0  0  0  0  0  0  0  0  0  0  0  0
    7.6278    3.4416    0.0000 N   0  0  0  0  0  0  0  0  0  0  0  0
    5.4845    0.9859    0.0000 C   0  0  0  0  0  0  0  0  0  0  0  0
    5.2290    1.7695    0.0000 C   0  0  0  0  0  0  0  0  0  0  0  0
    4.4228    1.9399    0.0000 C   0  0  0  0  0  0  0  0  0  0  0  0
    4.1705    2.7218    0.0000 C   0  0  0  0  0  0  0  0  0  0  0  0
    3.3651    2.8925    0.0000 C   0  0  0  0  0  0  0  0  0  0  0  0
    2.8134    2.2791    0.0000 C   0  0  0  0  0  0  0  0  0  0  0  0
    3.0728    1.4926    0.0000 C   0  0  0  0  0  0  0  0  0  0  0  0
    3.8776    1.3256    0.0000 C   0  0  0  0  0  0  0  0  0  0  0  0
 12  8  1  0  0  0  0 
  3  2  1  0  0  0  0 
  6 13  1  0  0  0  0 
 13 14  2  0  0  0  0 
  4  5  2  0  0  0  0 
  5  6  1  0  0  0  0 
  6  7  2  0  0  0  0 
  7  3  1  0  0  0  0 
 14 15  1  0  0  0  0 
 15 16  2  0  0  0  0 
 16 17  1  0  0  0  0 
 17 13  1  0  0  0  0 
  8  9  2  0  0  0  0 
  2 18  1  0  0  0  0 
  3  4  1  0  0  0  0 
 10 19  1  0  0  0  0 
 19 20  1  0  0  0  0 
  1  9  1  0  0  0  0 
 20 21  1  0  0  0  0 
  1  2  2  0  0  0  0 
 21 22  2  0  0  0  0 
  8  4  1  0  0  0  0 
 22 23  1  0  0  0  0 
  9 10  1  0  0  0  0 
 23 24  2  0  0  0  0 
 10 11  1  0  0  0  0 
 24 25  1  0  0  0  0 
 11 12  2  0  0  0  0 
 25 26  2  0  0  0  0 
 26 21  1  0  0  0  0 
M  END