
  SciTegic11201309402D

101110  0  0  0  0            999 V2000
   -1.6411  -18.6127    0.0000 C   0  0
   -1.5946  -20.2668    0.0000 O   0  0
    2.1716  -16.4956    0.0000 N   0  0
    1.3486  -16.5085    0.0000 C   0  0
    0.9482  -17.2299    0.0000 N   0  0
    0.9241  -15.8011    0.0000 S   0  0
    0.1233  -17.2437    0.0000 C   0  0
   -0.2954  -16.5358    0.0000 C   0  0
   -1.1195  -16.5493    0.0000 C   0  0
   -0.2691  -17.9639    0.0000 C   0  0
   -1.0918  -17.9809    0.0000 C   0  0
   -1.5225  -17.2668    0.0000 C   0  0
   -2.3347  -17.4557    0.0000 C   0  0
   -2.4061  -18.2866    0.0000 O   0  0
   -2.9582  -16.9154    0.0000 O   0  0
   -0.9116  -19.0014    0.0000 C   0  0
   -0.8924  -19.8308    0.0000 C   0  0
   -0.1657  -20.2270    0.0000 C   0  0
    0.5423  -19.7950    0.0000 C   0  0
    0.5189  -18.9625    0.0000 C   0  0
   -0.2083  -18.5701    0.0000 C   0  0
   -2.3225  -19.8717    0.0000 C   0  0
   -2.3438  -19.0495    0.0000 C   0  0
   -3.0653  -18.6587    0.0000 C   0  0
   -3.7660  -19.0890    0.0000 C   0  0
   -3.7405  -19.9141    0.0000 C   0  0
   -3.0186  -20.3012    0.0000 C   0  0
    1.2673  -20.1886    0.0000 O   0  0
   -4.4418  -20.3487    0.0000 O   0  0
   11.4360  -17.6588    0.0000 C   0  0
   12.2608  -17.6419    0.0000 N   0  0
   11.0382  -18.3816    0.0000 O   0  0
   12.6878  -18.3478    0.0000 C   0  0  2  0  0  0
   13.5126  -18.3310    0.0000 C   0  0
   12.2900  -19.0706    0.0000 C   0  0  1  0  0  0
   11.4652  -19.0875    0.0000 C   0  0
   12.7170  -19.7765    0.0000 O   0  0
   13.9397  -19.0368    0.0000 N   0  0
   13.9104  -17.6082    0.0000 O   0  0
   10.1892  -16.9688    0.0000 N   0  0
   11.0094  -16.9532    0.0000 C   0  0  1  0  0  0
   11.2478  -16.1681    0.0000 C   0  0
   10.5747  -15.6987    0.0000 C   0  0
    9.9205  -16.1938    0.0000 C   0  0
   14.7645  -19.0200    0.0000 C   0  0  2  0  0  0
   15.1915  -19.7258    0.0000 C   0  0
   15.1623  -18.2972    0.0000 C   0  0
   14.7937  -20.4486    0.0000 O   0  0
   16.0139  -19.7089    0.0000 N   0  0
   16.0267  -20.5326    0.0000 C   0  0
   16.8139  -20.7796    0.0000 C   0  0
   17.2921  -20.1073    0.0000 C   0  0
   16.8007  -19.4433    0.0000 C   0  0  1  0  0  0
   17.1719  -18.7065    0.0000 C   0  0
   17.9948  -18.6597    0.0000 N   0  0
   16.7195  -18.0166    0.0000 O   0  0
   18.2932  -19.4281    0.0000 C   0  0
   19.1170  -19.3839    0.0000 C   0  0
   19.3296  -18.5867    0.0000 C   0  0
   18.6374  -18.1371    0.0000 C   0  0  1  0  0  0
   18.3284  -17.3721    0.0000 C   0  0
   18.8348  -16.7136    0.0000 N   0  0
   17.5115  -17.2572    0.0000 O   0  0
   11.6880  -18.3682    0.0000 H   0  0
    9.7971  -17.6947    0.0000 C   0  0
    8.9725  -17.7182    0.0000 C   0  0
   10.2298  -18.3972    0.0000 O   0  0
    8.5398  -17.0157    0.0000 N   0  0
   18.4146  -16.0039    0.0000 C   0  0  2  0  0  0
   17.5896  -16.0125    0.0000 C   0  0
   18.8186  -15.2853    0.0000 C   0  0
   19.6429  -15.2510    0.0000 C   0  0
   20.0847  -15.9477    0.0000 C   0  0
   19.7038  -16.6797    0.0000 O   0  0
   20.9106  -15.9145    0.0000 O   0  0
   17.1693  -15.3025    0.0000 N   0  0
   17.1846  -16.7313    0.0000 O   0  0
   17.4704  -14.5334    0.0000 C   0  0
   18.2866  -14.4130    0.0000 C   0  0
   18.5904  -13.6460    0.0000 N   0  0
   18.7989  -15.0597    0.0000 O   0  0
    7.7152  -17.0391    0.0000 C   0  0
    7.2827  -16.3365    0.0000 C   0  0  2  0  0  0
    7.3231  -17.7650    0.0000 O   0  0
   16.3444  -15.3181    0.0000 C   0  0
   14.7269  -14.2115    0.0000 C   0  0
    7.5492  -15.5602    0.0000 C   0  0
    6.8910  -15.0627    0.0000 C   0  0
    6.2145  -15.5349    0.0000 C   0  0
    6.4534  -16.3241    0.0000 N   0  0
    5.7557  -16.7643    0.0000 C   0  0
    5.0256  -16.3801    0.0000 C   0  0
    5.7880  -17.5886    0.0000 O   0  0
    4.3278  -16.8202    0.0000 C   0  0
    3.5977  -16.4360    0.0000 C   0  0
    2.9000  -16.8762    0.0000 C   0  0
    8.5333  -16.1875    0.0000 C   0  0
   12.3570  -14.2111    0.0000 C   0  0
   19.4091  -17.5011    0.0000 H   0  0
   17.7971  -19.3582    0.0000 H   0  0
   12.0017  -16.8290    0.0000 H   0  0
 45 47  1  1
  3  4  1  0
 46 48  2  0
 11 10  2  0
 46 49  1  0
 49 50  1  0
 22 23  2  0
 10  7  1  0
 23 24  1  0
 11 12  1  0
 50 51  1  0
 51 52  1  0
 52 53  1  0
 53 49  1  0
 24 25  2  0
 53 54  1  0
  1 16  1  0
 54 55  1  0
 25 26  1  0
 54 56  2  0
 55 57  1  0
  4  5  1  0
 26 27  2  0
 27 22  1  0
 22  2  1  0
 57 58  1  0
 58 59  1  0
 59 60  1  0
 60 55  1  0
 19 28  1  0
 60 61  1  0
  4  6  2  0
 61 62  1  0
 26 29  1  0
 61 63  2  0
 12 13  1  0
 33 64  1  1
 41 30  1  0
 40 65  1  0
 13 14  1  0
 65 66  1  0
 30 31  1  0
 65 67  2  0
 14  1  1  0
 66 68  1  0
 30 32  2  0
 62 69  1  0
  1 11  1  0
 69 70  1  0
 31 33  1  0
 69 71  1  6
  2 17  1  0
 71 72  1  0
 33 34  1  0
 72 73  1  0
 13 15  2  0
 33 35  1  0
 73 74  1  0
 73 75  2  0
  5  7  1  0
 70 76  1  0
 35 36  1  6
 70 77  2  0
 76 78  1  0
 35 37  1  0
 78 79  1  0
 16 17  2  0
 79 80  1  0
 34 38  1  0
 79 81  2  0
  7  8  2  0
 68 82  1  0
 34 39  2  0
 83 82  1  1
 40 41  1  0
 82 84  2  0
 17 18  1  0
 76 85  1  0
  1 23  1  0
 85 86  1  0
 83 87  1  0
 18 19  2  0
  8  9  1  0
 19 20  1  0
 41 42  1  0
 87 88  1  0
 88 89  1  0
 89 90  1  0
 90 83  1  0
 42 43  1  0
 90 91  1  0
 43 44  1  0
 91 92  1  0
 44 40  1  0
 91 93  2  0
  9 12  2  0
 92 94  1  0
 38 45  1  0
 94 95  1  0
 20 21  2  0
 95 96  1  0
 96  3  1  0
 45 46  1  0
 68 97  1  0
 21 16  1  0
 97 98  1  0
 98 86  2  0
 60 99  1  1
 53100  1  1
 41101  1  6
M  END