
  SciTegic03151118422D

 22 23  0  0  0  0            999 V2000
    3.8147    7.5000    0.0000 C   0  0
    6.4128    3.0000    0.0000 C   0  0
    5.5468    3.5000    0.0000 C   0  0
    6.4128    2.0000    0.0000 C   0  0
    2.9487    6.0000    0.0000 C   0  0
    4.6808    6.0000    0.0000 C   0  0
    2.9487    5.0000    0.0000 C   0  0
    4.6808    5.0000    0.0000 C   0  0
    1.0000    4.7024    0.0000 C   0  0
    0.5000    3.8364    0.0000 C   0  0
    4.6808    2.0000    0.0000 C   0  0
    2.9487    3.0000    0.0000 C   0  0
    3.8147    6.5000    0.0000 C   0  0
    3.8147    4.5000    0.0000 C   0  0
    4.6808    3.0000    0.0000 C   0  0
    5.5468    1.5000    0.0000 C   0  0
    2.0827    3.5000    0.0000 C   0  0
    1.9781    4.4945    0.0000 N   0  0
    1.1691    3.0933    0.0000 N   0  0
    3.8147    3.5000    0.0000 N   0  0
    5.5468    0.5000    0.0000 O   0  0
    0.0000    0.0000    0.0000 Cl  0  0
  1 13  1  0
  2  3  2  0
  2  4  1  0
  3 15  1  0
  4 16  2  0
  5  7  1  0
  5 13  2  0
  6  8  2  0
  6 13  1  0
  7 14  2  0
  8 14  1  0
  9 10  1  0
  9 18  1  0
 10 19  1  0
 11 15  2  0
 11 16  1  0
 12 17  1  0
 12 20  1  0
 14 20  1  0
 15 20  1  0
 16 21  1  0
 17 18  2  0
 17 19  1  0
M  END