
  SciTegic04091416292D

 17 19  0  0  0  0            999 V2000
    7.5852  -18.5409    0.0000 C   0  0
    7.8163  -19.3271    0.0000 C   0  0
    8.6112  -19.5187    0.0000 C   0  0
    8.1456  -17.9490    0.0000 C   0  0
    8.9400  -18.1368    0.0000 C   0  0
    9.1779  -18.9249    0.0000 C   0  0
    9.6160  -17.6671    0.0000 N   0  0
   10.2717  -18.1648    0.0000 C   0  0
   10.0035  -18.9427    0.0000 C   0  0
   10.5402  -19.5604    0.0000 C   0  0
   11.3477  -19.4060    0.0000 N   0  0
   11.6159  -18.6281    0.0000 C   0  0
   11.0765  -18.0046    0.0000 C   0  0
   11.8828  -20.0237    0.0000 C   0  0
   11.6154  -20.7959    0.0000 C   0  0
   12.6853  -19.8691    0.0000 O   0  0
    7.2529  -19.9191    0.0000 N   0  0
  1  2  2  0
  2  3  1  0
  3  6  2  0
  5  4  2  0
  4  1  1  0
  5  6  1  0
  6  9  1  0
  8  7  1  0
  7  5  1  0
  8  9  2  0
  8 13  1  0
  9 10  1  0
 10 11  1  0
 11 12  1  0
 12 13  1  0
 11 14  1  0
 14 15  1  0
 14 16  2  0
  2 17  1  0
M  END