
          11280715012D 1   1.00000     0.00000     0

 39 42  0     0  0            999 V2000
    4.8417   -6.1292    0.0000 C   0  0  0  0  0  0           0  0  0
    4.5042   -5.6292    0.0000 N   0  0  0  0  0  0           0  0  0
    4.8917   -5.1667    0.0000 C   0  0  0  0  0  0           0  0  0
    5.4500   -5.3792    0.0000 O   0  0  0  0  0  0           0  0  0
    5.4167   -5.9792    0.0000 C   0  0  0  0  0  0           0  0  0
    4.8042   -6.7292    0.0000 C   0  0  0  0  0  0           0  0  0
    4.8917   -2.7667    0.0000 C   0  0  0  0  0  0           0  0  0
    4.9000   -4.5667    0.0000 C   0  0  0  0  0  0           0  0  0
    4.8917   -3.3667    0.0000 C   0  0  0  0  0  0           0  0  0
    6.4542   -0.0625    0.0000 C   0  0  0  0  0  0           0  0  0
    4.2667   -7.0042    0.0000 O   0  0  0  0  0  0           0  0  0
    4.3750   -2.4667    0.0000 C   0  0  0  0  0  0           0  0  0
    5.4125   -2.4667    0.0000 C   0  0  0  0  0  0           0  0  0
    3.8542   -1.5667    0.0000 N   0  0  0  0  0  0           0  0  0
    6.9750    0.2375    0.0000 O   0  0  0  0  0  0           0  0  0
    5.4167   -4.2542    0.0000 C   0  0  0  0  0  0           0  0  0
    4.3792   -4.2667    0.0000 C   0  0  0  0  0  0           0  0  0
    5.4125   -3.6667    0.0000 C   0  0  0  0  0  0           0  0  0
    4.3792   -3.6667    0.0000 C   0  0  0  0  0  0           0  0  0
    5.3042   -7.0667    0.0000 N   0  0  0  0  0  0           0  0  0
    5.9292    0.2458    0.0000 O   0  0  0  0  0  0           0  0  0
    4.3750   -1.8667    0.0000 C   0  0  0  0  0  0           0  0  0
    6.4542   -0.6625    0.0000 C   0  0  0  0  0  0           0  0  0
    3.3292   -1.8667    0.0000 C   0  0  0  0  0  0           0  0  0
    4.1292   -9.3917    0.0000 C   0  0  3  0  0  0           0  0  0
    5.4125   -1.8625    0.0000 C   0  0  0  0  0  0           0  0  0
    3.8542   -2.7667    0.0000 C   0  0  0  0  0  0           0  0  0
    5.2750   -7.6542    0.0000 C   0  0  0  0  0  0           0  0  0
    4.1667   -8.7917    0.0000 C   0  0  0  0  0  0           0  0  0
    3.5917   -9.6542    0.0000 C   0  0  0  0  0  0           0  0  0
    4.6292   -9.7167    0.0000 C   0  0  0  0  0  0           0  0  0
    5.9292   -0.9625    0.0000 C   0  0  0  0  0  0           0  0  0
    5.9292   -1.5625    0.0000 C   0  0  0  0  0  0           0  0  0
    4.7292   -7.9292    0.0000 C   0  0  0  0  0  0           0  0  0
    4.7042   -8.5292    0.0000 C   0  0  0  0  0  0           0  0  0
    3.3292   -2.4667    0.0000 C   0  0  0  0  0  0           0  0  0
    3.5542  -10.2542    0.0000 C   0  0  0  0  0  0           0  0  0
    4.5917  -10.3167    0.0000 C   0  0  0  0  0  0           0  0  0
    4.0542  -10.5917    0.0000 C   0  0  0  0  0  0           0  0  0
  2  1  1  0     0  0
  3  2  2  0     0  0
  4  5  1  0     0  0
  5  1  2  0     0  0
  6  1  1  0     0  0
  7  9  1  0     0  0
  8  3  1  0     0  0
  9 19  2  0     0  0
 10 23  1  0     0  0
 11  6  2  0     0  0
 12  7  1  0     0  0
 13  7  2  0     0  0
 14 22  2  0     0  0
 15 10  2  0     0  0
 16  8  1  0     0  0
 17  8  2  0     0  0
 18 16  2  0     0  0
 19 17  1  0     0  0
 20  6  1  0     0  0
 21 10  1  0     0  0
 22 12  1  0     0  0
 23 32  1  0     0  0
 24 36  2  0     0  0
 25 29  1  0     0  0
 26 13  1  0     0  0
 27 12  2  0     0  0
 28 20  1  0     0  0
 29 35  1  0     0  0
 30 25  1  0     0  0
 31 25  1  0     0  0
 32 33  1  0     0  0
 33 26  1  0     0  0
 34 28  1  0     0  0
 35 34  1  0     0  0
 36 27  1  0     0  0
 37 30  1  0     0  0
 38 31  1  0     0  0
 39 38  1  0     0  0
  4  3  1  0     0  0
  9 18  1  0     0  0
 37 39  1  0     0  0
 24 14  1  0     0  0
M  END