
  Mrv0541 04051115152D          

 12 12  0  0  0  0            999 V2000
    1.2258   -0.1779    0.0000 C   0  0  0  0  0  0  0  0  0  0  0  0
    0.5114   -0.5904    0.0000 C   0  0  0  0  0  0  0  0  0  0  0  0
   -0.2031   -0.1779    0.0000 C   0  0  0  0  0  0  0  0  0  0  0  0
   -0.2031    0.6471    0.0000 N   0  0  0  0  0  0  0  0  0  0  0  0
    0.5114    1.0596    0.0000 C   0  0  0  0  0  0  0  0  0  0  0  0
    1.2258    0.6471    0.0000 N   0  0  0  0  0  0  0  0  0  0  0  0
    0.5114    1.8846    0.0000 N   0  0  0  0  0  0  0  0  0  0  0  0
    1.9403   -0.5904    0.0000 C   0  0  0  0  0  0  0  0  0  0  0  0
   -0.9176   -0.5904    0.0000 C   0  0  0  0  0  0  0  0  0  0  0  0
   -1.6320   -1.0029    0.0000 F   0  0  0  0  0  0  0  0  0  0  0  0
   -1.3301    0.1241    0.0000 F   0  0  0  0  0  0  0  0  0  0  0  0
   -0.5051   -1.3049    0.0000 F   0  0  0  0  0  0  0  0  0  0  0  0
  1  2  2  0  0  0  0
  1  6  1  0  0  0  0
  1  8  1  0  0  0  0
  2  3  1  0  0  0  0
  3  4  2  0  0  0  0
  3  9  1  0  0  0  0
  5  4  1  0  0  0  0
  5  6  2  0  0  0  0
  5  7  1  0  0  0  0
  9 10  1  0  0  0  0
  9 11  1  0  0  0  0
  9 12  1  0  0  0  0
M  END