
          11280714442D 1   1.00000     0.00000     0

 31 35  0     0  0            999 V2000
    0.1792    1.8458    0.0000 N   0  0  3  0  0  0           0  0  0
    0.7542    2.0333    0.0000 C   0  0  0  0  0  0           0  0  0
    0.1792    2.8208    0.0000 N   0  0  0  0  0  0           0  0  0
   -0.1708    2.3333    0.0000 C   0  0  0  0  0  0           0  0  0
    0.7542    2.6333    0.0000 C   0  0  0  0  0  0           0  0  0
   -1.6583   -0.6625    0.0000 C   0  0  0  0  0  0           0  0  0
   -2.3958   -0.0292    0.0000 N   0  0  0  0  0  0           0  0  0
   -1.7958   -0.0792    0.0000 N   0  0  0  0  0  0           0  0  0
   -2.6250   -0.5792    0.0000 N   0  0  0  0  0  0           0  0  0
    1.2750    1.7250    0.0000 N   0  0  0  0  0  0           0  0  0
   -2.1708   -0.9750    0.0000 N   0  0  0  0  0  0           0  0  0
   -1.1875   -1.0417    0.0000 C   0  0  0  0  0  0           0  0  0
    1.2750    2.9333    0.0000 C   0  0  0  0  0  0           0  0  0
   -0.6333   -0.8292    0.0000 C   0  0  0  0  0  0           0  0  0
   -0.3375    1.5458    0.0000 C   0  0  0  0  0  0           0  0  0
   -0.5333   -0.2292    0.0000 C   0  0  0  0  0  0           0  0  0
    1.7917    2.0250    0.0000 C   0  0  0  0  0  0           0  0  0
    1.7917    2.6333    0.0000 C   0  0  0  0  0  0           0  0  0
   -1.0000    0.1458    0.0000 C   0  0  0  0  0  0           0  0  0
    0.0292   -0.0167    0.0000 C   0  0  0  0  0  0           0  0  0
   -0.3458    0.9458    0.0000 C   0  0  0  0  0  0           0  0  0
   -0.7708    2.3333    0.0000 C   0  0  0  0  0  0           0  0  0
    0.1167    0.5750    0.0000 C   0  0  0  0  0  0           0  0  0
   -0.9083    0.7375    0.0000 C   0  0  0  0  0  0           0  0  0
   -1.2833   -1.6292    0.0000 C   0  0  0  0  0  0           0  0  0
   -0.1625   -1.2042    0.0000 C   0  0  0  0  0  0           0  0  0
    1.2750    3.5333    0.0000 C   0  0  0  0  0  0           0  0  0
    2.3167    1.7250    0.0000 C   0  0  0  0  0  0           0  0  0
   -1.0708    2.8500    0.0000 C   0  0  0  0  0  0           0  0  0
   -0.2583   -1.7917    0.0000 C   0  0  0  0  0  0           0  0  0
   -0.8208   -2.0125    0.0000 C   0  0  0  0  0  0           0  0  0
  2  1  1  0     0  0
  3  4  2  0     0  0
  4  1  1  0     0  0
  5  2  2  0     0  0
  6 12  1  0     0  0
  7  8  2  0     0  0
  8  6  1  0     0  0
  9 11  1  0     0  0
 10  2  1  0     0  0
 11  6  2  0     0  0
 12 14  2  0     0  0
 13  5  1  0     0  0
 14 16  1  0     0  0
 15  1  1  0     0  0
 16 19  2  0     0  0
 17 10  2  0     0  0
 18 17  1  0     0  0
 19 24  1  0     0  0
 20 23  2  0     0  0
 21 15  1  0     0  0
 22  4  1  0     0  0
 23 21  1  0     0  0
 24 21  2  0     0  0
 25 12  1  0     0  0
 26 14  1  0     0  0
 27 13  1  0     0  0
 28 17  1  0     0  0
 29 22  1  0     0  0
 30 26  2  0     0  0
 31 30  1  0     0  0
  3  5  1  0     0  0
 20 16  1  0     0  0
 13 18  2  0     0  0
 31 25  2  0     0  0
  9  7  1  0     0  0
M  END