
          11280715002D 1   1.00000     0.00000     0

 33 37  0     0  0            999 V2000
   -2.1458   -0.9042    0.0000 N   0  0  3  0  0  0           0  0  0
   -1.3583   -0.6542    0.0000 C   0  0  0  0  0  0           0  0  0
   -0.8750   -1.3167    0.0000 N   0  0  3  0  0  0           0  0  0
   -1.3583   -1.9875    0.0000 N   0  0  0  0  0  0           0  0  0
   -2.1458   -1.7292    0.0000 C   0  0  0  0  0  0           0  0  0
    3.6667   -0.5917    0.0000 C   0  0  0  0  0  0           0  0  0
    2.8417   -0.6000    0.0000 C   0  0  0  0  0  0           0  0  0
   -0.0500   -1.3125    0.0000 C   0  0  0  0  0  0           0  0  0
    1.1917   -0.6000    0.0000 N   0  0  3  0  0  0           0  0  0
   -1.1083    0.1333    0.0000 O   0  0  0  0  0  0           0  0  0
    4.0792    0.1333    0.0000 C   0  0  0  0  0  0           0  0  0
    4.0875   -1.3000    0.0000 C   0  0  0  0  0  0           0  0  0
    2.4292    0.1125    0.0000 C   0  0  0  0  0  0           0  0  0
    2.4292   -1.3167    0.0000 C   0  0  0  0  0  0           0  0  0
    0.3625   -0.6000    0.0000 C   0  0  0  0  0  0           0  0  0
   -2.8000   -0.3917    0.0000 C   0  0  0  0  0  0           0  0  0
    3.6542    0.8458    0.0000 C   0  0  0  0  0  0           0  0  0
    4.9042    0.1333    0.0000 C   0  0  0  0  0  0           0  0  0
    1.6042   -1.3167    0.0000 C   0  0  0  0  0  0           0  0  0
    1.6042    0.1125    0.0000 C   0  0  0  0  0  0           0  0  0
    4.8917    1.5750    0.0000 C   0  0  0  0  0  0           0  0  0
   -2.7875   -2.2625    0.0000 C   0  0  0  0  0  0           0  0  0
    4.0667    1.5708    0.0000 C   0  0  0  0  0  0           0  0  0
    5.3167    0.8458    0.0000 C   0  0  0  0  0  0           0  0  0
    5.3000    2.3083    0.0000 F   0  0  0  0  0  0           0  0  0
    4.9125   -1.2917    0.0000 C   0  0  0  0  0  0           0  0  0
    3.6750   -2.0125    0.0000 C   0  0  0  0  0  0           0  0  0
   -3.6083   -0.5750    0.0000 C   0  0  0  0  0  0           0  0  0
   -3.6000   -2.0792    0.0000 C   0  0  0  0  0  0           0  0  0
    4.0875   -2.7292    0.0000 C   0  0  0  0  0  0           0  0  0
    5.3250   -2.0042    0.0000 C   0  0  0  0  0  0           0  0  0
    4.9125   -2.7250    0.0000 C   0  0  0  0  0  0           0  0  0
   -3.9708   -1.3292    0.0000 C   0  0  0  0  0  0           0  0  0
  2  1  1  0     0  0
  3  2  1  0     0  0
  4  5  2  0     0  0
  5  1  1  0     0  0
  6  7  2  0     0  0
  7 13  1  0     0  0
  8  3  1  0     0  0
  9 15  1  0     0  0
 10  2  2  0     0  0
 11  6  1  0     0  0
 12  6  1  0     0  0
 13 20  1  0     0  0
 14 19  1  0     0  0
 15  8  1  0     0  0
 16  1  1  0     0  0
 17 11  1  0     0  0
 18 11  2  0     0  0
 19  9  1  0     0  0
 20  9  1  0     0  0
 21 24  2  0     0  0
 22  5  1  0     0  0
 23 17  2  0     0  0
 24 18  1  0     0  0
 25 21  1  0     0  0
 26 12  1  0     0  0
 27 12  2  0     0  0
 28 16  1  0     0  0
 29 22  1  0     0  0
 30 27  1  0     0  0
 31 26  2  0     0  0
 32 30  2  0     0  0
 33 28  1  0     0  0
  4  3  1  0     0  0
 33 29  1  0     0  0
 14  7  1  0     0  0
 23 21  1  0     0  0
 31 32  1  0     0  0
M  END