
          11280714442D 1   1.00000     0.00000     0

 20 20  0     0  0            999 V2000
    0.8792   -5.3042    0.0000 N   0  3  0  0  0  0           0  0  0
    3.7375   -5.1792    0.0000 C   0  0  0  0  0  0           0  0  0
    1.6167   -5.6917    0.0000 C   0  0  0  0  0  0           0  0  0
    3.0417   -5.6250    0.0000 C   0  0  0  0  0  0           0  0  0
    2.3042   -5.2417    0.0000 C   0  0  0  0  0  0           0  0  0
    0.8417   -4.4792    0.0000 O   0  5  0  0  0  0           0  0  0
    0.1875   -5.7542    0.0000 O   0  0  0  0  0  0           0  0  0
    4.4667   -5.5625    0.0000 O   0  0  0  0  0  0           0  0  0
    3.7000   -4.3542    0.0000 O   0  0  0  0  0  0           0  0  0
    7.3250   -5.4292    0.0000 N   0  0  0  0  0  0           0  0  0
    5.8917   -5.4917    0.0000 C   0  0  3  0  0  0           0  0  0
    5.1625   -5.1167    0.0000 C   0  0  0  0  0  0           0  0  0
    6.5917   -5.0500    0.0000 C   0  0  0  0  0  0           0  0  0
    5.9292   -6.3167    0.0000 O   0  0  0  0  0  0           0  0  0
    1.6542   -6.5125    0.0000 C   0  0  0  0  0  0           0  0  0
    3.0792   -6.4417    0.0000 C   0  0  0  0  0  0           0  0  0
    2.3917   -6.8917    0.0000 C   0  0  0  0  0  0           0  0  0
    8.0167   -4.9875    0.0000 C   0  0  3  0  0  0           0  0  0
    7.9792   -4.1625    0.0000 C   0  0  0  0  0  0           0  0  0
    8.7500   -5.3667    0.0000 C   0  0  0  0  0  0           0  0  0
  2  4  1  0     0  0
  3  1  1  0     0  0
  4  5  2  0     0  0
  5  3  1  0     0  0
  6  1  1  0     0  0
  7  1  2  0     0  0
  8  2  1  0     0  0
  9  2  2  0     0  0
 10 13  1  0     0  0
 11 12  1  0     0  0
 12  8  1  0     0  0
 13 11  1  0     0  0
 14 11  1  0     0  0
 15  3  2  0     0  0
 16 17  2  0     0  0
 17 15  1  0     0  0
 18 10  1  0     0  0
 19 18  1  0     0  0
 20 18  1  0     0  0
 16  4  1  0     0  0
M  CHG  2   1   1   6  -1
M  END