
  SciTegic01161211262D

 32 34  0  0  0  0            999 V2000
   -3.0812    0.7326    0.0000 C   0  0  2  0  0  0
   -3.0842   -0.0971    0.0000 C   0  0
   -2.3732   -0.5084    0.0000 N   0  0
   -2.3718    1.1435    0.0000 O   0  0
   -0.9303    1.9631    0.0000 C   0  0
   -1.6473    2.3824    0.0000 C   0  0
   -2.3712    1.9718    0.0000 C   0  0
   -0.9373    1.1332    0.0000 C   0  0
   -0.9654   -1.3481    0.0000 C   0  0
   -3.0839    2.3873    0.0000 O   0  0
   -1.6691   -0.1027    0.0000 C   0  0
   -0.9533   -0.5245    0.0000 C   0  0  1  0  0  0
   -0.2287   -0.1112    0.0000 C   0  0
   -0.2249    0.7166    0.0000 C   0  0
   -1.6650    0.7223    0.0000 O   0  0
   -0.2570   -1.7710    0.0000 C   0  0
   -0.2691   -2.5960    0.0000 N   0  0
    0.4634   -1.3691    0.0000 O   0  0
    0.4392   -3.0189    0.0000 C   0  0
    0.4271   -3.8438    0.0000 C   0  0
   -0.2948   -4.2410    0.0000 C   0  0
   -0.3072   -5.0651    0.0000 C   0  0
    0.4017   -5.4889    0.0000 C   0  0
    1.1245   -5.0825    0.0000 C   0  0
    1.1334   -4.2597    0.0000 C   0  0
    0.3906   -6.3138    0.0000 Cl  0  0
   -3.7952    1.1459    0.0000 C   0  0
   -3.7910    1.9679    0.0000 C   0  0
   -4.5041    2.3811    0.0000 C   0  0
   -5.2200    1.9693    0.0000 C   0  0
   -5.2183    1.1400    0.0000 C   0  0
   -4.5045    0.7305    0.0000 C   0  0
  9 16  1  0
  3 11  1  0
 16 17  1  0
 16 18  2  0
 12  9  1  1
 17 19  1  0
  1  2  1  0
 19 20  1  0
  7 10  2  0
 20 21  2  0
  1  4  1  0
 21 22  1  0
  2  3  1  0
 22 23  2  0
 11 12  1  0
 23 24  1  0
  4  7  1  0
 24 25  2  0
 25 20  1  0
 12 13  1  0
 23 26  1  0
  8  5  1  0
  1 27  1  1
 13 14  1  0
 27 28  2  0
 14  8  2  0
 28 29  1  0
  5  6  1  0
 29 30  2  0
 11 15  2  0
 30 31  1  0
  6  7  1  0
 31 32  2  0
 32 27  1  0
M  END