
  SciTegic01161211242D

 40 45  0  0  0  0            999 V2000
    0.6925  -10.4630    0.0000 C   0  0
    1.3784  -10.0050    0.0000 C   0  0
    2.1499  -10.2940    0.0000 N   0  0
    1.4088   -9.1838    0.0000 C   0  0
    2.2029   -8.9601    0.0000 N   0  0
    2.6556   -9.6457    0.0000 C   0  0
    3.4476   -9.4270    0.0000 S   0  0
    2.7150   -8.3177    0.0000 C   0  0
    3.4851   -8.6104    0.0000 C   0  0
    4.1215   -8.0902    0.0000 C   0  0
    3.9891   -7.2774    0.0000 C   0  0
    3.2147   -6.9873    0.0000 C   0  0
    2.5815   -7.5093    0.0000 C   0  0
   -0.7348  -10.4666    0.0000 C   0  0
   -0.7359  -11.2940    0.0000 C   0  0
   -0.0211  -11.7069    0.0000 C   0  0
    0.6953  -11.2935    0.0000 C   0  0
   -0.0229  -10.0539    0.0000 C   0  0
   -1.4507  -11.7059    0.0000 N   0  0
   -2.1649  -11.2929    0.0000 C   0  0
   -2.8797  -11.7048    0.0000 N   0  0
   -2.1642  -10.4679    0.0000 O   0  0
   -3.5938  -11.2917    0.0000 C   0  0
   -3.6751  -10.4684    0.0000 C   0  0
   -4.4820  -10.2963    0.0000 C   0  0
   -4.8951  -11.0105    0.0000 O   0  0
   -4.3435  -11.6239    0.0000 N   0  0
   -4.8169   -9.5423    0.0000 C   0  0
   -4.3315   -8.8753    0.0000 C   0  0
   -5.6458   -9.5417    0.0000 C   0  0
   -5.2375   -8.8250    0.0000 C   0  0
    3.1658   -6.1640    0.0000 O   0  0
    3.8546   -5.7104    0.0000 C   0  0
    4.5677   -6.1253    0.0000 C   0  0
    5.2836   -5.7152    0.0000 N   0  0
    5.9933   -6.1355    0.0000 C   0  0
    6.7070   -5.7289    0.0000 C   0  0
    6.7140   -4.9036    0.0000 O   0  0
    6.0011   -4.4865    0.0000 C   0  0
    5.2811   -4.8947    0.0000 C   0  0
  5  4  1  0
 15 19  1  0
  8  9  2  0
 19 20  1  0
  4  2  2  0
 20 21  1  0
  9 10  1  0
 20 22  2  0
  5  6  1  0
 21 23  1  0
 23 24  1  0
 10 11  2  0
  2  3  1  0
 11 12  1  0
 24 25  2  0
 25 26  1  0
 26 27  1  0
 27 23  2  0
 12 13  2  0
 25 28  1  0
 13  8  1  0
 28 29  1  0
  1  2  1  0
 28 30  1  0
  6  7  1  0
 28 31  1  0
 14 15  2  0
 12 32  1  0
  7  9  1  0
 32 33  1  0
 15 16  1  0
 33 34  1  0
  8  5  1  0
 34 35  1  0
 35 36  1  0
 16 17  2  0
 17  1  1  0
  3  6  2  0
  1 18  2  0
 18 14  1  0
 35 40  1  0
 36 37  1  0
 37 38  1  0
 38 39  1  0
 39 40  1  0
M  END