
  Mrv0541 04051115152D          

 19 21  0  0  0  0            999 V2000
    1.8037   -1.5678    0.0000 N   0  0  0  0  0  0  0  0  0  0  0  0
    1.8037   -0.7428    0.0000 C   0  0  0  0  0  0  0  0  0  0  0  0
    1.0892   -0.3303    0.0000 N   0  0  0  0  0  0  0  0  0  0  0  0
    0.3748   -0.7428    0.0000 C   0  0  0  0  0  0  0  0  0  0  0  0
    0.3748   -1.5678    0.0000 C   0  0  0  0  0  0  0  0  0  0  0  0
    1.0892   -1.9803    0.0000 C   0  0  0  0  0  0  0  0  0  0  0  0
    1.0892   -2.8053    0.0000 N   0  0  0  0  0  0  0  0  0  0  0  0
   -0.4099   -1.8227    0.0000 N   0  0  0  0  0  0  0  0  0  0  0  0
   -0.8948   -1.1553    0.0000 C   0  0  0  0  0  0  0  0  0  0  0  0
   -0.4099   -0.4878    0.0000 N   0  0  0  0  0  0  0  0  0  0  0  0
   -2.1169    1.8617    0.0000 O   0  0  0  0  0  0  0  0  0  0  0  0
   -2.1169    0.0668    0.0000 O   0  0  0  0  0  0  0  0  0  0  0  0
   -0.9619    3.0294    0.0000 S   0  0  0  0  0  0  0  0  0  0  0  0
   -0.4099    2.4163    0.0000 C   0  0  0  0  0  0  0  0  0  0  0  0
   -0.1799    0.9642    0.0000 O   0  0  0  0  0  0  0  0  0  0  0  0
   -1.4494    1.3767    0.0000 C   0  0  1  0  0  0  0  0  0  0  0  0
   -1.4494    0.5517    0.0000 C   0  0  2  0  0  0  0  0  0  0  0  0
   -0.6648    1.6317    0.0000 C   0  0  1  0  0  0  0  0  0  0  0  0
   -0.6648    0.2968    0.0000 C   0  0  2  0  0  0  0  0  0  0  0  0
  2  1  2  0  0  0  0
  6  1  1  0  0  0  0
  2  3  1  0  0  0  0
  4  3  2  0  0  0  0
  4  5  1  0  0  0  0
  4 10  1  0  0  0  0
  5  6  2  0  0  0  0
  5  8  1  0  0  0  0
  6  7  1  0  0  0  0
  9  8  2  0  0  0  0
  9 10  1  0  0  0  0
 19 10  1  1  0  0  0
 16 11  1  6  0  0  0
 17 12  1  6  0  0  0
 14 13  1  0  0  0  0
 18 14  1  1  0  0  0
 18 15  1  0  0  0  0
 19 15  1  0  0  0  0
 16 17  1  0  0  0  0
 16 18  1  0  0  0  0
 17 19  1  0  0  0  0
M  END