
  SciTegic01161211212D

 49 52  0  0  0  0            999 V2000
   -0.5445  -13.7828    0.0000 N   0  0
    0.8817  -13.7899    0.0000 C   0  0  1  0  0  0
    0.1706  -13.3725    0.0000 C   0  0
   -1.9183  -12.0896    0.0000 C   0  0
   -1.2177  -12.5256    0.0000 C   0  0  1  0  0  0
   -1.2412  -13.3523    0.0000 C   0  0
    1.6167  -13.4341    0.0000 C   0  0
    2.3173  -13.8659    0.0000 N   0  0
    1.6362  -12.6073    0.0000 O   0  0
    2.2894  -14.6889    0.0000 C   0  0
    2.9860  -15.1246    0.0000 C   0  0
    3.7126  -14.7331    0.0000 N   0  0
    3.7423  -13.9055    0.0000 C   0  0
    3.0372  -13.4692    0.0000 C   0  0
    4.4085  -15.1708    0.0000 C   0  0
    4.3805  -15.9985    0.0000 C   0  0
    5.0828  -16.4370    0.0000 C   0  0
    5.8095  -16.0446    0.0000 C   0  0
    5.8336  -15.2137    0.0000 C   0  0
    5.1349  -14.7831    0.0000 C   0  0
   -0.4935  -12.1305    0.0000 C   0  0
   -2.6425  -12.4847    0.0000 C   0  0
   -3.3438  -12.0465    0.0000 C   0  0
   -3.3859  -13.7004    0.0000 C   0  0
   -2.6609  -13.3076    0.0000 C   0  0
   -4.0915  -13.2686    0.0000 C   0  0
   -4.0682  -12.4428    0.0000 N   0  0
   -0.5487  -14.6098    0.0000 C   0  0
    0.8770  -12.9597    0.0000 H   0  0
    0.8776  -14.6170    0.0000 C   0  0  2  0  0  0
    0.1594  -15.0282    0.0000 C   0  0  1  0  0  0
    0.1550  -15.8497    0.0000 C   0  0
    0.8669  -16.2661    0.0000 C   0  0
    1.5851  -15.8592    0.0000 C   0  0
    1.5913  -15.0315    0.0000 C   0  0
   -0.5612  -15.4328    0.0000 H   0  0
    1.5919  -14.1984    0.0000 H   0  0
    6.5627  -14.8240    0.0000 F   0  0
    6.5138  -16.4815    0.0000 F   0  0
   -4.8179  -13.6625    0.0000 O   0  0
   -4.8410  -14.4893    0.0000 C   0  0
    7.8171  -12.7124    0.0000 C   0  0
    7.1029  -13.1239    0.0000 C   0  0
    6.3889  -12.7124    0.0000 C   0  0
    5.6789  -13.1239    0.0000 C   0  0
    7.8171  -11.8894    0.0000 O   0  0
    8.5270  -13.1239    0.0000 O   0  0
    5.6789  -13.9469    0.0000 O   0  0
    4.9648  -12.7124    0.0000 O   0  0
 22 23  2  0
 23 27  1  0
 26 24  1  0
  4  5  1  0
 24 25  2  0
 25 22  1  0
 26 27  2  0
  1 28  1  0
  5  6  1  0
 31 28  1  0
  8 14  1  0
 10 11  1  0
  2 29  1  6
 30 31  1  0
 11 12  1  0
 12 13  1  0
 13 14  1  0
  6  1  1  0
  1  3  1  0
 15 16  2  0
 30 35  1  0
 31 32  1  0
 32 33  1  0
 33 34  1  0
 34 35  1  0
  2  7  1  0
 31 36  1  6
 16 17  1  0
 30 37  1  6
 30  2  1  0
 19 38  1  0
 17 18  2  0
 18 39  1  0
  7  8  1  0
 18 19  1  0
 40 41  1  0
 26 40  1  0
  2  3  1  0
 19 20  2  0
 20 15  1  0
 12 15  1  0
  7  9  2  0
  5 21  1  6
  8 10  1  0
  4 22  1  0
 42 43  1  0
 43 44  2  0
 44 45  1  0
 42 46  2  0
 42 47  1  0
 45 48  2  0
 45 49  1  0
M  END