
          11280715372D 1   1.00000     0.00000     0

 25 27  0     0  0            999 V2000
   -2.6000   -1.5000    0.0000 C   0  0  0  0  0  0           0  0  0
   -2.0875   -1.8000    0.0000 C   0  0  0  0  0  0           0  0  0
   -3.1208   -1.8000    0.0000 C   0  0  0  0  0  0           0  0  0
   -2.6000   -0.9000    0.0000 C   0  0  0  0  0  0           0  0  0
   -1.5625   -1.4917    0.0000 C   0  0  0  0  0  0           0  0  0
   -1.5625   -0.9000    0.0000 C   0  0  0  0  0  0           0  0  0
   -3.6458   -1.4917    0.0000 C   0  0  0  0  0  0           0  0  0
   -2.0875   -0.6000    0.0000 O   0  0  0  0  0  0           0  0  0
   -3.6458   -0.9000    0.0000 C   0  0  0  0  0  0           0  0  0
   -3.1208   -0.6000    0.0000 C   0  0  0  0  0  0           0  0  0
   -4.1833   -0.6125    0.0000 O   0  0  0  0  0  0           0  0  0
   -2.0875   -2.4000    0.0000 O   0  0  0  0  0  0           0  0  0
   -1.0375   -0.6000    0.0000 C   0  0  0  0  0  0           0  0  0
   -3.1125   -2.4000    0.0000 O   0  0  0  0  0  0           0  0  0
   -4.1625   -1.7875    0.0000 C   0  0  3  0  0  0           0  0  0
   -4.1875   -0.0125    0.0000 C   0  0  3  0  0  0           0  0  0
   -1.0375    0.0083    0.0000 C   0  0  0  0  0  0           0  0  0
   -0.5208   -0.9000    0.0000 C   0  0  0  0  0  0           0  0  0
   -4.6875   -1.4875    0.0000 C   0  0  0  0  0  0           0  0  0
   -4.3333   -2.3667    0.0000 C   0  0  0  0  0  0           0  0  0
   -3.7625    0.4125    0.0000 C   0  0  0  0  0  0           0  0  0
   -4.7083    0.2875    0.0000 C   0  0  0  0  0  0           0  0  0
    0.0042   -0.5917    0.0000 C   0  0  0  0  0  0           0  0  0
   -0.5208    0.3083    0.0000 C   0  0  0  0  0  0           0  0  0
    0.0042    0.0000    0.0000 C   0  0  0  0  0  0           0  0  0
  2  1  1  0     0  0
  3  1  1  0     0  0
  4  1  2  0     0  0
  5  2  1  0     0  0
  6  8  1  0     0  0
  7  3  2  0     0  0
  8  4  1  0     0  0
  9 10  2  0     0  0
 10  4  1  0     0  0
 11  9  1  0     0  0
 12  2  2  0     0  0
 13  6  1  0     0  0
 14  3  1  0     0  0
 15  7  1  0     0  0
 16 11  1  0     0  0
 17 13  1  0     0  0
 18 13  2  0     0  0
 19 15  1  0     0  0
 20 15  1  0     0  0
 21 16  1  0     0  0
 22 16  1  0     0  0
 23 18  1  0     0  0
 24 17  2  0     0  0
 25 23  2  0     0  0
  7  9  1  0     0  0
  6  5  2  0     0  0
 24 25  1  0     0  0
M  END