
  SciTegic02271217242D

 25 27  0  0  0  0            999 V2000
   10.8125  -20.3917    0.0000 O   0  0
   11.2292  -21.1083    0.0000 S   0  0
   11.6415  -20.3892    0.0000 O   0  0
    9.0902  -21.5291    0.0000 C   0  0
    9.0891  -22.3565    0.0000 C   0  0
    9.8039  -22.7694    0.0000 C   0  0
   10.5203  -22.3560    0.0000 C   0  0
   10.5175  -21.5255    0.0000 C   0  0
    9.8021  -21.1164    0.0000 C   0  0
   11.9464  -21.5201    0.0000 N   0  0
   11.9495  -22.3451    0.0000 C   0  0
   11.2375  -22.7571    0.0000 C   0  0
   11.2402  -23.5813    0.0000 N   0  0
   11.9568  -23.9920    0.0000 C   0  0
   12.6721  -23.5724    0.0000 C   0  0
   12.6658  -22.7495    0.0000 C   0  0
   13.3895  -23.9796    0.0000 C   0  0
   13.3907  -24.8053    0.0000 C   0  0
   14.1074  -25.2125    0.0000 N   0  0
   14.0939  -23.5620    0.0000 C   0  0
   14.8097  -23.9624    0.0000 N   0  0
   14.8182  -24.7940    0.0000 C   0  0
   15.5365  -25.1998    0.0000 N   0  0
    9.7996  -20.2914    0.0000 F   0  0
    8.3743  -22.7684    0.0000 F   0  0
  6  7  2  0
 12 13  1  0
  2  1  2  0
 13 14  2  0
  7  8  1  0
 14 15  1  0
  4  5  2  0
 15 16  2  0
 16 11  1  0
  8  9  2  0
 15 17  1  0
  9  4  1  0
 17 18  2  0
  8  2  1  0
 18 19  1  0
 19 22  2  0
  3  2  2  0
 21 20  2  0
 20 17  1  0
 21 22  1  0
  2 10  1  0
  5  6  1  0
 10 11  1  0
 22 23  1  0
  9 24  1  0
 11 12  2  0
  5 25  1  0
M  END