
          11280715522D 1   1.00000     0.00000     0

 43 46  0     0  0            999 V2000
    7.3715  -27.8903    0.0000 N   0  0  0  0  0  0           0  0  0
   -4.7848  -21.7833    0.0000 C   0  0  0  0  0  0           0  0  0
   -4.7859  -22.6107    0.0000 C   0  0  0  0  0  0           0  0  0
   -4.0711  -23.0235    0.0000 C   0  0  0  0  0  0           0  0  0
   -4.0729  -21.3705    0.0000 C   0  0  0  0  0  0           0  0  0
   -3.3575  -21.7797    0.0000 C   0  0  0  0  0  0           0  0  0
   -3.3568  -22.6065    0.0000 C   0  0  0  0  0  0           0  0  0
   -2.6415  -23.0175    0.0000 N   0  0  0  0  0  0           0  0  0
   -1.9264  -22.6027    0.0000 C   0  0  0  0  0  0           0  0  0
   -1.9312  -21.7727    0.0000 C   0  0  0  0  0  0           0  0  0
   -2.6471  -21.3655    0.0000 C   0  0  0  0  0  0           0  0  0
   -4.0692  -23.8485    0.0000 O   0  0  0  0  0  0           0  0  0
   -3.3538  -24.2594    0.0000 C   0  0  0  0  0  0           0  0  0
   -3.3519  -25.0844    0.0000 C   0  0  0  0  0  0           0  0  0
   -4.0680  -25.4942    0.0000 C   0  0  0  0  0  0           0  0  0
   -4.0664  -26.3184    0.0000 C   0  0  0  0  0  0           0  0  0
   -3.3504  -26.7301    0.0000 C   0  0  0  0  0  0           0  0  0
   -2.6346  -26.3115    0.0000 C   0  0  0  0  0  0           0  0  0
   -2.6396  -25.4886    0.0000 C   0  0  0  0  0  0           0  0  0
   -4.7820  -25.0810    0.0000 Cl  0  0  0  0  0  0           0  0  0
   -1.9280  -25.0713    0.0000 Cl  0  0  0  0  0  0           0  0  0
   -1.2104  -23.0124    0.0000 C   0  0  0  0  0  0           0  0  0
   -1.9177  -26.7198    0.0000 S   0  0  3  0  0  0           0  0  0
   -1.2083  -27.1292    0.0000 N   0  0  0  0  0  0           0  0  0
   -1.6010  -26.1291    0.0000 O   0  0  0  0  0  0           0  0  0
   -2.2915  -27.3135    0.0000 O   0  0  0  0  0  0           0  0  0
   -0.4939  -26.7165    0.0000 C   0  0  3  0  0  0           0  0  0
    0.2167  -26.2958    0.0000 C   0  0  0  0  0  0           0  0  0
   -0.0775  -27.4287    0.0000 C   0  0  0  0  0  0           0  0  0
   -0.7861  -26.0361    0.0000 C   0  0  0  0  0  0           0  0  0
    0.2076  -25.4709    0.0000 O   0  0  0  0  0  0           0  0  0
    0.9356  -26.7005    0.0000 N   0  0  3  0  0  0           0  0  0
    0.9402  -27.5259    0.0000 C   0  0  0  0  0  0           0  0  0
    1.6550  -27.9305    0.0000 C   0  0  0  0  0  0           0  0  0
    2.3674  -27.5137    0.0000 N   0  0  3  0  0  0           0  0  0
    2.3603  -26.6878    0.0000 C   0  0  0  0  0  0           0  0  0
    1.6409  -26.2786    0.0000 C   0  0  0  0  0  0           0  0  0
    3.0848  -27.9211    0.0000 C   0  0  0  0  0  0           0  0  0
    3.7963  -27.5034    0.0000 C   0  0  0  0  0  0           0  0  0
    4.5137  -27.9108    0.0000 C   0  0  0  0  0  0           0  0  0
    5.2252  -27.4932    0.0000 C   0  0  0  0  0  0           0  0  0
    5.9426  -27.9006    0.0000 C   0  0  0  0  0  0           0  0  0
    6.6541  -27.4829    0.0000 C   0  0  0  0  0  0           0  0  0
 19 21  1  0     0  0
 10 11  2  0     0  0
  9 22  1  0     0  0
 11  6  1  0     0  0
 18 23  1  0     0  0
 23 24  1  0     0  0
  4 12  1  0     0  0
 23 25  2  0     0  0
  3  4  1  0     0  0
 23 26  2  0     0  0
 12 13  1  0     0  0
 24 27  1  0     0  0
  6  7  1  0     0  0
 27 28  1  0     0  0
 13 14  1  0     0  0
 27 29  1  0     0  0
  4  7  2  0     0  0
 27 30  1  0     0  0
 14 15  2  0     0  0
 28 31  2  0     0  0
  7  8  1  0     0  0
 28 32  1  0     0  0
 32 33  1  0     0  0
 15 16  1  0     0  0
  2  3  2  0     0  0
 16 17  2  0     0  0
  8  9  2  0     0  0
 17 18  1  0     0  0
 32 37  1  0     0  0
 33 34  1  0     0  0
 34 35  1  0     0  0
 35 36  1  0     0  0
 36 37  1  0     0  0
  6  5  2  0     0  0
 35 38  1  0     0  0
 18 19  2  0     0  0
 38 39  1  0     0  0
 19 14  1  0     0  0
 39 40  1  0     0  0
  9 10  1  0     0  0
 40 41  1  0     0  0
 15 20  1  0     0  0
 41 42  1  0     0  0
  5  2  1  0     0  0
 42 43  1  0     0  0
 43  1  1  0     0  0
M  END