
          11280715032D 1   1.00000     0.00000     0

 27 30  0     1  0            999 V2000
    2.5542   -5.2917    0.0000 S   0  0  3  0  0  0           0  0  0
    3.0792   -4.9917    0.0000 N   0  0  3  0  0  0           0  0  0
    3.0875   -3.1917    0.0000 N   0  0  3  0  0  0           0  0  0
    3.0792   -4.3917    0.0000 C   0  0  1  0  0  0           0  0  0
    2.5667   -3.4917    0.0000 C   0  0  2  0  0  0           0  0  0
    2.5625   -4.0917    0.0000 C   0  0  0  0  0  0           0  0  0
    2.0417   -3.1917    0.0000 C   0  0  0  0  0  0           0  0  0
    3.6042   -4.0917    0.0000 C   0  0  2  0  0  0           0  0  0
    2.0417   -2.5917    0.0000 C   0  0  0  0  0  0           0  0  0
    3.6042   -3.4917    0.0000 C   0  0  0  0  0  0           0  0  0
    2.0375   -4.9917    0.0000 O   0  0  0  0  0  0           0  0  0
    2.9792   -5.7042    0.0000 O   0  0  0  0  0  0           0  0  0
    1.5250   -3.4917    0.0000 C   0  0  0  0  0  0           0  0  0
    3.0875   -2.5917    0.0000 C   0  0  0  0  0  0           0  0  0
    1.5250   -2.2917    0.0000 C   0  0  0  0  0  0           0  0  0
    2.5667   -2.2792    0.0000 C   0  0  0  0  0  0           0  0  0
    2.1292   -5.7042    0.0000 C   0  0  0  0  0  0           0  0  0
    3.6000   -5.2917    0.0000 C   0  0  0  0  0  0           0  0  0
    1.0042   -2.5917    0.0000 C   0  0  0  0  0  0           0  0  0
    1.0042   -3.1917    0.0000 C   0  0  0  0  0  0           0  0  0
    4.1250   -4.3917    0.0000 C   0  0  0  0  0  0           0  0  0
    0.4917   -2.2917    0.0000 O   0  0  0  0  0  0           0  0  0
    4.1167   -5.0042    0.0000 C   0  0  0  0  0  0           0  0  0
   -0.0333   -2.5917    0.0000 C   0  0  0  0  0  0           0  0  0
    2.0417   -3.7917    0.0000 H   0  0  0  0  0  0           0  0  0
    4.1250   -3.7917    0.0000 H   0  0  0  0  0  0           0  0  0
    2.4917   -4.5500    0.0000 H   0  0  0  0  0  0           0  0  0
  2  1  1  0     0  0
  3 10  1  0     0  0
  4  2  1  0     0  0
  5  6  1  0     0  0
  6  4  1  0     0  0
  7  5  1  0     0  0
  8  4  1  0     0  0
  9  7  1  0     0  0
 10  8  1  0     0  0
 11  1  2  0     0  0
 12  1  2  0     0  0
 13  7  2  0     0  0
 14  3  1  0     0  0
 15  9  2  0     0  0
 16 14  1  0     0  0
 17  1  1  0     0  0
 18  2  1  0     0  0
 19 20  2  0     0  0
 20 13  1  0     0  0
 21 23  1  0     0  0
 22 19  1  0     0  0
 23 18  1  0     0  0
 24 22  1  0     0  0
  5 25  1  1     0  0
  8 26  1  1     0  0
  4 27  1  6     0  0
  8 21  1  0     0  0
  5  3  1  0     0  0
  9 16  1  0     0  0
 15 19  1  0     0  0
M  END