
          05270816392D 1   1.00000     0.00000     0

 36 41  0     1  0            999 V2000
   -4.5163   -4.1755    0.0000 C   0  0  0  0  0  0           0  0  0
   -4.5176   -4.9985    0.0000 C   0  0  0  0  0  0           0  0  0
   -3.0929   -4.1715    0.0000 C   0  0  0  0  0  0           0  0  0
   -3.8019   -3.7626    0.0000 C   0  0  0  0  0  0           0  0  0
   -3.0897   -4.9980    0.0000 C   0  0  0  0  0  0           0  0  0
   -3.8012   -5.4124    0.0000 C   0  0  0  0  0  0           0  0  0
   -3.8026   -6.2346    0.0000 C   0  0  0  0  0  0           0  0  0
   -3.0895   -6.6485    0.0000 C   0  0  0  0  0  0           0  0  0
   -5.1335   -5.5505    0.0000 N   0  0  0  0  0  0           0  0  0
   -4.5870   -6.4892    0.0000 C   0  0  0  0  0  0           0  0  0
   -2.3751   -5.4101    0.0000 C   0  0  2  0  0  0           0  0  0
   -2.3742   -6.2380    0.0000 C   0  0  2  0  0  0           0  0  0
   -1.6608   -6.6490    0.0000 N   0  0  3  0  0  0           0  0  0
   -0.9437   -6.2366    0.0000 C   0  0  0  0  0  0           0  0  0
   -0.9446   -5.4087    0.0000 C   0  0  1  0  0  0           0  0  0
   -1.6626   -4.9932    0.0000 C   0  0  0  0  0  0           0  0  0
   -2.3834   -7.0585    0.0000 H   0  0  0  0  0  0           0  0  0
   -2.3834   -4.5835    0.0000 H   0  0  0  0  0  0           0  0  0
   -0.2301   -4.9962    0.0000 C   0  0  0  0  0  0           0  0  0
   -0.2301   -4.1712    0.0000 O   0  0  0  0  0  0           0  0  0
    0.4845   -5.4087    0.0000 N   0  0  3  0  0  0           0  0  0
    0.4793   -6.2390    0.0000 C   0  0  0  0  0  0           0  0  0
    1.1897   -6.6514    0.0000 C   0  0  0  0  0  0           0  0  0
    1.9066   -6.2424    0.0000 N   0  0  3  0  0  0           0  0  0
    1.9085   -5.4164    0.0000 C   0  0  0  0  0  0           0  0  0
    1.1936   -4.9994    0.0000 C   0  0  0  0  0  0           0  0  0
    2.6195   -6.6576    0.0000 C   0  0  0  0  0  0           0  0  0
    2.6115   -7.4815    0.0000 C   0  0  0  0  0  0           0  0  0
    3.3236   -7.8965    0.0000 C   0  0  0  0  0  0           0  0  0
    4.0406   -7.4867    0.0000 C   0  0  0  0  0  0           0  0  0
    4.0410   -6.6573    0.0000 C   0  0  0  0  0  0           0  0  0
    3.3283   -6.2460    0.0000 C   0  0  0  0  0  0           0  0  0
   -1.6611   -7.4740    0.0000 C   0  0  0  0  0  0           0  0  0
   -4.8815   -7.2598    0.0000 Cl  0  0  0  0  0  0           0  0  0
    4.7556   -6.2451    0.0000 F   0  0  0  0  0  0           0  0  0
    4.7541   -7.9009    0.0000 F   0  0  0  0  0  0           0  0  0
  6  7  1  0     0  0
 12 17  1  1     0  0
  7  8  1  0     0  0
 11 18  1  6     0  0
  8 12  1  0     0  0
 15 19  1  1     0  0
  3  4  2  0     0  0
 19 20  2  0     0  0
  2  9  1  0     0  0
 19 21  1  0     0  0
 21 22  1  0     0  0
  4  1  1  0     0  0
  7 10  2  0     0  0
  9 10  1  0     0  0
 11 12  1  0     0  0
  5  6  2  0     0  0
 21 26  1  0     0  0
 22 23  1  0     0  0
 23 24  1  0     0  0
 24 25  1  0     0  0
 25 26  1  0     0  0
  2  6  1  0     0  0
 24 27  1  0     0  0
 27 28  2  0     0  0
  5  3  1  0     0  0
 28 29  1  0     0  0
  1  2  2  0     0  0
 29 30  2  0     0  0
  5 11  1  0     0  0
 30 31  1  0     0  0
 11 16  1  0     0  0
 31 32  2  0     0  0
 32 27  1  0     0  0
 12 13  1  0     0  0
 13 33  1  0     0  0
 13 14  1  0     0  0
 10 34  1  0     0  0
 14 15  1  0     0  0
 31 35  1  0     0  0
 15 16  1  0     0  0
 30 36  1  0     0  0
M  END