
  SciTegic09261414532D

 47 54  0  0  0  0            999 V2000
   32.4192   -9.8009    0.0000 N   0  0
   31.6335  -10.0083    0.0000 C   0  0
   31.5889  -10.8243    0.0000 N   0  0
   32.8664  -10.4836    0.0000 C   0  0
   32.3512  -11.1135    0.0000 C   0  0
   32.6394  -11.8725    0.0000 C   0  0
   33.4423  -12.0028    0.0000 C   0  0
   33.9564  -11.3681    0.0000 C   0  0
   33.6655  -10.6116    0.0000 C   0  0
   30.8734   -9.7133    0.0000 C   0  0
   30.7518   -8.9041    0.0000 C   0  0
   29.9915   -8.6065    0.0000 C   0  0
   29.3523   -9.1170    0.0000 C   0  0
   29.4783   -9.9287    0.0000 C   0  0
   30.2386  -10.2226    0.0000 C   0  0
   25.1540   -7.2267    0.0000 C   0  0
   25.1529   -8.0463    0.0000 C   0  0
   25.8609   -8.4552    0.0000 C   0  0
   25.8592   -6.8179    0.0000 C   0  0
   26.5678   -7.2231    0.0000 C   0  0
   26.5680   -8.0463    0.0000 C   0  0
   27.3510   -8.3005    0.0000 N   0  0
   27.8347   -7.6343    0.0000 C   0  0
   27.3506   -6.9686    0.0000 N   0  0
   27.6037   -9.0776    0.0000 C   0  0
   28.6487   -7.6326    0.0000 N   0  0
   29.0569   -8.3418    0.0000 C   0  0
   29.8733   -8.3419    0.0000 C   0  0
   30.2825   -7.6335    0.0000 C   0  0
   29.8693   -6.9236    0.0000 C   0  0
   29.0542   -6.9270    0.0000 C   0  0
   31.0997   -7.6321    0.0000 C   0  0
   31.5095   -8.3392    0.0000 O   0  0
   32.3267   -8.3378    0.0000 C   0  0
   27.0571   -9.6851    0.0000 C   0  0
   32.7364   -9.0448    0.0000 C   0  0
   31.5071   -6.9238    0.0000 O   0  0
   33.5508   -8.9942    0.0000 C   0  0
   34.0027   -9.6762    0.0000 C   0  0
   34.8148   -9.6261    0.0000 C   0  0
   35.1812   -8.8953    0.0000 N   0  0
   34.7293   -8.2133    0.0000 C   0  0
   33.9110   -8.2621    0.0000 C   0  0
   26.2475   -9.6030    0.0000 C   0  0
   25.9153  -10.3497    0.0000 S   0  0
   26.5228  -10.8963    0.0000 C   0  0
   27.2303  -10.4875    0.0000 C   0  0
  1  2  1  0
  2  3  2  0
  3  5  1  0
  4  1  1  0
  4  5  2  0
  5  6  1  0
  6  7  2  0
  7  8  1  0
  8  9  2  0
  9  4  1  0
 10 11  2  0
 11 12  1  0
 12 13  2  0
 13 14  1  0
 14 15  2  0
 15 10  1  0
  2 10  1  0
 16 17  2  0
 17 18  1  0
 18 21  2  0
 20 19  2  0
 19 16  1  0
 20 21  1  0
 21 22  1  0
 22 23  1  0
 23 24  2  0
 24 20  1  0
 22 25  1  0
 26 27  1  0
 27 28  1  0
 28 29  1  0
 29 30  1  0
 30 31  1  0
 31 26  1  0
 23 26  1  0
 29 32  1  0
 32 33  1  0
 33 34  1  0
 25 35  1  0
 34 36  1  0
 36  1  1  0
 32 37  2  0
 38 39  1  0
 38 43  1  0
 39 40  1  0
 40 41  1  0
 41 42  1  0
 42 43  1  0
 36 38  1  0
 35 44  2  0
 44 45  1  0
 45 46  1  0
 46 47  2  0
 47 35  1  0
M  END