
          08180812482D 1   1.00000     0.00000     0

 38 42  0     0  0            999 V2000
   10.3867  -10.1835    0.0000 N   0  0  3  0  0  0           0  0  0
   10.3832  -11.0083    0.0000 C   0  0  0  0  0  0           0  0  0
   11.0999  -11.4217    0.0000 N   0  0  3  0  0  0           0  0  0
   11.1007   -9.7705    0.0000 C   0  0  0  0  0  0           0  0  0
   11.0997   -8.9456    0.0000 O   0  0  0  0  0  0           0  0  0
    9.6646  -11.4258    0.0000 O   0  0  0  0  0  0           0  0  0
   11.8129  -10.1839    0.0000 C   0  0  0  0  0  0           0  0  0
   11.8115  -11.0082    0.0000 C   0  0  0  0  0  0           0  0  0
   12.5937  -11.2614    0.0000 C   0  0  0  0  0  0           0  0  0
   13.0761  -10.6075    0.0000 C   0  0  0  0  0  0           0  0  0
   12.5957   -9.9324    0.0000 N   0  0  0  0  0  0           0  0  0
    9.6654   -9.7653    0.0000 C   0  0  0  0  0  0           0  0  0
   11.0986  -12.2460    0.0000 C   0  0  0  0  0  0           0  0  0
   13.8956  -10.6453    0.0000 C   0  0  0  0  0  0           0  0  0
   14.2772  -11.3799    0.0000 C   0  0  0  0  0  0           0  0  0
   15.1014  -11.4225    0.0000 C   0  0  0  0  0  0           0  0  0
   15.5561  -10.7150    0.0000 C   0  0  0  0  0  0           0  0  0
   15.1706   -9.9918    0.0000 C   0  0  0  0  0  0           0  0  0
   14.3413   -9.9562    0.0000 C   0  0  0  0  0  0           0  0  0
   16.3810  -10.7276    0.0000 O   0  0  0  0  0  0           0  0  0
   16.8036  -10.0247    0.0000 C   0  0  0  0  0  0           0  0  0
   17.6349  -10.0302    0.0000 C   0  0  0  0  0  0           0  0  0
   18.0463  -10.7445    0.0000 N   0  0  3  0  0  0           0  0  0
   18.0441   -9.3186    0.0000 O   0  0  0  0  0  0           0  0  0
   17.6348  -11.4554    0.0000 C   0  0  0  0  0  0           0  0  0
   18.0438  -12.1702    0.0000 C   0  0  0  0  0  0           0  0  0
   18.8705  -12.1666    0.0000 N   0  0  3  0  0  0           0  0  0
   19.2843  -11.4550    0.0000 C   0  0  0  0  0  0           0  0  0
   18.8683  -10.7408    0.0000 C   0  0  0  0  0  0           0  0  0
   11.8126  -12.6597    0.0000 C   0  0  0  0  0  0           0  0  0
   11.8113  -13.4848    0.0000 C   0  0  0  0  0  0           0  0  0
   19.2886  -12.8798    0.0000 C   0  0  0  0  0  0           0  0  0
   18.8793  -13.5961    0.0000 C   0  0  0  0  0  0           0  0  0
   19.2967  -14.3088    0.0000 C   0  0  0  0  0  0           0  0  0
   20.1243  -14.3039    0.0000 C   0  0  0  0  0  0           0  0  0
   20.5328  -13.5802    0.0000 C   0  0  0  0  0  0           0  0  0
   20.1131  -12.8705    0.0000 C   0  0  0  0  0  0           0  0  0
   20.5426  -15.0153    0.0000 F   0  0  0  0  0  0           0  0  0
  8  9  1  0     0  0
  9 10  2  0     0  0
 10 11  1  0     0  0
 11  7  1  0     0  0
  1 12  1  0     0  0
  3 13  1  0     0  0
 10 14  1  0     0  0
 14 15  2  0     0  0
 14 19  1  0     0  0
 15 16  1  0     0  0
 16 17  2  0     0  0
 17 18  1  0     0  0
 18 19  2  0     0  0
 17 20  1  0     0  0
 20 21  1  0     0  0
 21 22  1  0     0  0
 22 23  1  0     0  0
 22 24  2  0     0  0
 23 25  1  0     0  0
 23 29  1  0     0  0
 25 26  1  0     0  0
 26 27  1  0     0  0
 27 28  1  0     0  0
 28 29  1  0     0  0
 13 30  1  0     0  0
  1  2  1  0     0  0
 30 31  1  0     0  0
  1  4  1  0     0  0
 27 32  1  0     0  0
  2  3  1  0     0  0
 32 33  2  0     0  0
  3  8  1  0     0  0
 33 34  1  0     0  0
  7  4  1  0     0  0
 34 35  2  0     0  0
  4  5  2  0     0  0
 35 36  1  0     0  0
  2  6  2  0     0  0
 36 37  2  0     0  0
 37 32  1  0     0  0
  7  8  2  0     0  0
 35 38  1  0     0  0
M  END