
  SciTegic03291108582D

 23 26  0  0  0  0            999 V2000
   -1.0076    2.0528    0.0000 S   0  0
    0.4915   -0.2647    0.0000 S   0  0
    1.2059    0.9728    0.0000 N   0  0
    0.4915    2.2103    0.0000 N   0  0
    1.9596   -0.3416    0.0000 N   0  0
    1.2922   -1.4977    0.0000 N   0  0
    2.5116   -0.9547    0.0000 N   0  0
    2.0991   -1.6692    0.0000 N   0  0
   -0.2230    0.9728    0.0000 C   0  0
   -1.0076    0.7179    0.0000 C   0  0
   -0.2230    1.7978    0.0000 C   0  0
    0.4915    0.5603    0.0000 C   0  0
   -1.2626   -0.0667    0.0000 C   0  0
   -1.4925    1.3853    0.0000 C   0  0
    1.2059   -0.6772    0.0000 C   0  0
    1.2059    1.7978    0.0000 C   0  0
   -0.7105   -0.6798    0.0000 C   0  0
   -2.0695   -0.2383    0.0000 C   0  0
   -0.9655   -1.4644    0.0000 C   0  0
   -2.3245   -1.0229    0.0000 C   0  0
   -1.7724   -1.6360    0.0000 C   0  0
    2.1311    0.4654    0.0000 C   0  0
   -2.0274   -2.4206    0.0000 C   0  0
  1 11  1  0
  1 14  1  0
  2 12  1  0
  2 15  1  0
  3 12  2  0
  3 16  1  0
  4 11  1  0
  4 16  2  0
  5  7  1  0
  5 15  1  0
  5 22  1  0
  6  8  1  0
  6 15  2  0
  7  8  2  0
  9 10  1  0
  9 11  2  0
  9 12  1  0
 10 13  1  0
 10 14  2  0
 13 17  2  0
 13 18  1  0
 17 19  1  0
 18 20  2  0
 19 21  2  0
 20 21  1  0
 21 23  1  0
M  END