
  SciTegic05171617282D

 42 47  0  0  0  0            999 V2000
    0.9217   23.2749    0.0000 C   0  0
    0.1820   22.3300    0.0000 N   0  0
   -1.0061   22.4984    0.0000 C   0  0
    0.7421   20.9375    0.0000 C   0  0
   -0.1808   19.7551    0.0000 C   0  0
    0.3818   18.3646    0.0000 C   0  0
    1.8673   18.1565    0.0000 C   0  0
    2.4331   16.7664    0.0000 O   0  0
    3.9196   16.5603    0.0000 C   0  0
    4.8400   17.7448    0.0000 C   0  0
    6.3259   17.5401    0.0000 C   0  0
    7.0622   18.4877    0.0000 O   0  0
    6.8916   16.1508    0.0000 C   0  0
    5.9713   14.9663    0.0000 C   0  0
    6.4235   13.8548    0.0000 O   0  0
    4.4904   15.1713    0.0000 C   0  0
    3.4830   14.0588    0.0000 C   0  0
    3.7908   12.5907    0.0000 C   0  0
    2.4920   11.8661    0.0000 C   0  0
    1.3777   12.8512    0.0000 O   0  0
    1.9917   14.2198    0.0000 N   0  0
    2.3279   10.3743    0.0000 C   0  0
    3.2955    9.6645    0.0000 O   0  0
    0.9542    9.7696    0.0000 N   0  0
    0.7901    8.2778    0.0000 C   0  0
   -0.5819    7.6715    0.0000 C   0  0
   -0.7429    6.1802    0.0000 C   0  0
    0.4679    5.2953    0.0000 N   0  0
    1.8402    5.9014    0.0000 C   0  0
    2.0012    7.3927    0.0000 C   0  0
    0.3168    3.8022    0.0000 C   0  0
    1.5656    2.8889    0.0000 C   0  0
    1.3979    1.3979    0.0000 C   0  0
    0.0186    0.7828    0.0000 C   0  0
   -1.1742    1.6588    0.0000 C   0  0
   -1.0251    3.1871    0.0000 C   0  0
   -0.8574   -0.4287    0.0000 O   0  0
    0.0186   -1.6401    0.0000 C   0  0
    1.4351   -1.1556    0.0000 C   0  0
    1.4351    0.3168    0.0000 O   0  0
    2.7902   19.3391    0.0000 C   0  0
    2.2276   20.7295    0.0000 C   0  0
  1  2  1  0
  2  3  1  0
  2  4  1  0
  4  5  2  0
  5  6  1  0
  6  7  2  0
  7  8  1  0
  8  9  1  0
  9 10  2  0
 10 11  1  0
 11 12  1  0
 11 13  2  0
 13 14  1  0
 14 15  1  0
 14 16  2  0
  9 16  1  0
 16 17  1  0
 17 18  1  0
 18 19  2  0
 19 20  1  0
 20 21  1  0
 17 21  2  0
 19 22  1  0
 22 23  2  0
 22 24  1  0
 24 25  1  0
 25 26  1  0
 26 27  1  0
 27 28  1  0
 28 29  1  0
 29 30  1  0
 25 30  1  0
 28 31  1  0
 31 32  1  0
 32 33  1  0
 33 34  1  0
 34 35  1  0
 35 36  1  0
 31 36  1  0
 34 37  1  0
 37 38  1  0
 38 39  1  0
 39 40  1  0
 34 40  1  0
  7 41  1  0
 41 42  2  0
  4 42  1  0
M  END