
          11280715392D 1   1.00000     0.00000     0

 17 19  0     0  0            999 V2000
    1.4375   -2.0792    0.0000 C   0  0  3  0  0  0           0  0  0
    0.7500   -2.5292    0.0000 O   0  0  0  0  0  0           0  0  0
    1.2250   -1.2792    0.0000 O   0  0  0  0  0  0           0  0  0
    0.1000   -2.0125    0.0000 C   0  0  3  0  0  0           0  0  0
   -1.2000   -3.6042    0.0000 N   0  0  3  0  0  0           0  0  0
    2.2042   -2.3667    0.0000 C   0  0  0  0  0  0           0  0  0
   -0.3625   -2.5625    0.0000 C   0  0  0  0  0  0           0  0  0
   -0.7208   -2.1250    0.0000 C   0  0  0  0  0  0           0  0  0
    0.4000   -1.2417    0.0000 C   0  0  0  0  0  0           0  0  0
   -0.7625   -3.1000    0.0000 C   0  0  0  0  0  0           0  0  0
   -0.3750   -3.4917    0.0000 C   0  0  0  0  0  0           0  0  0
   -1.9208   -4.0042    0.0000 C   0  0  0  0  0  0           0  0  0
    2.3292   -3.1792    0.0000 C   0  0  0  0  0  0           0  0  0
    2.8417   -1.8500    0.0000 C   0  0  0  0  0  0           0  0  0
    3.6125   -2.1417    0.0000 C   0  0  0  0  0  0           0  0  0
    3.1042   -3.4792    0.0000 C   0  0  0  0  0  0           0  0  0
    3.7417   -2.9542    0.0000 C   0  0  0  0  0  0           0  0  0
  2  1  1  0     0  0
  3  1  1  0     0  0
  4  2  1  0     0  0
  5 10  1  0     0  0
  6  1  1  0     0  0
  7  4  1  0     0  0
  8  4  1  0     0  0
  9  3  1  0     0  0
 10  8  1  0     0  0
 11  7  1  0     0  0
 12  5  1  0     0  0
 13  6  2  0     0  0
 14  6  1  0     0  0
 15 14  2  0     0  0
 16 13  1  0     0  0
 17 15  1  0     0  0
  4  9  1  0     0  0
 16 17  2  0     0  0
  5 11  1  0     0  0
M  END