
  CDK    9/16/09,9:56

 39 41  0  0  0  0  0  0  0  0999 V2000
   -0.7390  -15.4351    0.0000 O   0  0  0  0  0  0  0  0  0  0  0  0
   -0.7424  -16.2559    0.0000 C   0  0  0  0  0  0  0  0  0  0  0  0
   -1.4762  -16.6294    0.0000 C   0  0  0  0  0  0  0  0  0  0  0  0
   -2.2079  -16.2537    0.0000 C   0  0  0  0  0  0  0  0  0  0  0  0
   -2.3369  -15.4391    0.0000 O   0  0  0  0  0  0  0  0  0  0  0  0
   -2.7915  -16.8361    0.0000 C   0  0  0  0  0  0  0  0  0  0  0  0
   -3.6059  -16.7040    0.0000 O   0  0  0  0  0  0  0  0  0  0  0  0
   -2.4180  -17.5699    0.0000 C   0  0  0  0  0  0  0  0  0  0  0  0
   -1.6083  -17.4438    0.0000 O   0  0  0  0  0  0  0  0  0  0  0  0
   -2.7937  -18.3016    0.0000 N   0  0  0  0  0  0  0  0  0  0  0  0
   -3.6084  -18.4307    0.0000 C   0  0  0  0  0  0  0  0  0  0  0  0
   -3.7406  -19.2450    0.0000 N   0  0  0  0  0  0  0  0  0  0  0  0
   -3.0038  -19.6179    0.0000 C   0  0  0  0  0  0  0  0  0  0  0  0
   -2.7925  -20.4148    0.0000 C   0  0  0  0  0  0  0  0  0  0  0  0
   -3.3761  -20.9973    0.0000 N   0  0  0  0  0  0  0  0  0  0  0  0
   -1.9976  -20.6294    0.0000 N   0  0  0  0  0  0  0  0  0  0  0  0
   -1.4140  -20.0470    0.0000 C   0  0  0  0  0  0  0  0  0  0  0  0
   -1.6263  -19.2540    0.0000 N   0  0  0  0  0  0  0  0  0  0  0  0
   -2.4212  -19.0394    0.0000 C   0  0  0  0  0  0  0  0  0  0  0  0
   -0.0414  -16.6876    0.0000 N   0  0  0  0  0  0  0  0  0  0  0  0
    3.5054  -15.4394    0.0000 C   0  0  0  0  0  0  0  0  0  0  0  0
    4.2184  -15.0277    0.0000 N   0  0  0  0  0  0  0  0  0  0  0  0
    2.7882  -15.0277    0.0000 C   0  0  0  0  0  0  0  0  0  0  0  0
    3.5054  -16.2669    0.0000 O   0  0  0  0  0  0  0  0  0  0  0  0
    4.9356  -15.4394    0.0000 C   0  0  0  0  0  0  0  0  0  0  0  0
    5.6527  -15.0277    0.0000 C   0  0  0  0  0  0  0  0  0  0  0  0
    4.9356  -16.2669    0.0000 C   0  0  0  0  0  0  0  0  0  0  0  0
    6.3699  -15.4394    0.0000 N   0  0  0  0  0  0  0  0  0  0  0  0
    5.6527  -14.2003    0.0000 O   0  0  0  0  0  0  0  0  0  0  0  0
    5.6527  -16.6827    0.0000 C   0  0  0  0  0  0  0  0  0  0  0  0
    5.6527  -17.5102    0.0000 C   0  0  0  0  0  0  0  0  0  0  0  0
    6.3699  -17.9218    0.0000 N   0  0  0  0  0  0  0  0  0  0  0  0
    6.3699  -18.7493    0.0000 C   0  0  0  0  0  0  0  0  0  0  0  0
    7.0871  -19.1652    0.0000 N   0  0  0  0  0  0  0  0  0  0  0  0
    5.6527  -19.1652    0.0000 N   0  0  0  0  0  0  0  0  0  0  0  0
    2.0710  -15.4394    0.0000 C   0  0  0  0  0  0  0  0  0  0  0  0
    1.3538  -15.0277    0.0000 C   0  0  0  0  0  0  0  0  0  0  0  0
    0.6395  -15.4327    0.0000 C   0  0  0  0  0  0  0  0  0  0  0  0
    0.6606  -16.2594    0.0000 C   0  0  0  0  0  0  0  0  0  0  0  0
 13 19  2  0  0  0  0 
 10 19  1  0  0  0  0 
  2 20  1  0  0  0  0 
  1  2  2  0  0  0  0 
  3  2  1  1  0  0  0 
 21 22  1  0  0  0  0 
  3  4  1  0  0  0  0 
 21 23  1  0  0  0  0 
  4  5  1  6  0  0  0 
 21 24  2  0  0  0  0 
  4  6  1  0  0  0  0 
 22 25  1  0  0  0  0 
  6  7  1  6  0  0  0 
 25 26  1  0  0  0  0 
  6  8  1  0  0  0  0 
 25 27  1  1  0  0  0 
  8  9  1  0  0  0  0 
 26 28  1  0  0  0  0 
  3  9  1  0  0  0  0 
 26 29  2  0  0  0  0 
  8 10  1  1  0  0  0 
 27 30  1  0  0  0  0 
 10 11  1  0  0  0  0 
 30 31  1  0  0  0  0 
 11 12  2  0  0  0  0 
 31 32  1  0  0  0  0 
 12 13  1  0  0  0  0 
 32 33  1  0  0  0  0 
 13 14  1  0  0  0  0 
 33 34  1  0  0  0  0 
 14 15  1  0  0  0  0 
 33 35  2  0  0  0  0 
 14 16  2  0  0  0  0 
 23 36  1  0  0  0  0 
 16 17  1  0  0  0  0 
 36 37  1  0  0  0  0 
 17 18  2  0  0  0  0 
 37 38  1  0  0  0  0 
 18 19  1  0  0  0  0 
 38 39  1  0  0  0  0 
 39 20  1  0  0  0  0 
M  END