
  SciTegic11201309402D

 88 91  0  0  1  0            999 V2000
    9.2000   -2.6792    0.0000 N   0  0
    8.4542   -3.1250    0.0000 C   0  0
   10.6417   -1.6667    0.0000 C   0  0
    3.9625   -3.1542    0.0000 C   0  0
    2.4667   -3.1542    0.0000 N   0  0
    1.7167   -2.7250    0.0000 C   0  0
    9.9292   -2.2167    0.0000 C   0  0  1  0  0  0
    6.2125   -2.7250    0.0000 C   0  0
   -0.5333   -3.1542    0.0000 C   0  0
   11.3167    0.4958    0.0000 C   0  0
    4.7125   -2.7250    0.0000 N   0  0
    0.2167   -2.7250    0.0000 N   0  0
    3.2167   -2.7250    0.0000 C   0  0  1  0  0  0
    6.9625   -3.1542    0.0000 N   0  0
   10.4667   -0.7375    0.0000 N   0  0
    5.4625   -3.1542    0.0000 C   0  0  1  0  0  0
   12.1042    0.8625    0.0000 N   0  0
    5.4625   -4.0167    0.0000 C   0  0
    0.9667   -3.1542    0.0000 C   0  0  1  0  0  0
    7.7000   -2.7042    0.0000 C   0  0  1  0  0  0
   -1.2833   -2.7250    0.0000 C   0  0  2  0  0  0
   10.1875    4.9167    0.0000 C   0  0
   14.9500   -1.1125    0.0000 C   0  0
   -2.0333   -4.0167    0.0000 C   0  0
   -2.0333   -3.1542    0.0000 N   0  0
   12.9542    2.0958    0.0000 C   0  0
    5.2417   -4.8167    0.0000 C   0  0
   11.2500   -0.3667    0.0000 C   0  0  1  0  0  0
   12.1750    1.7250    0.0000 C   0  0  2  0  0  0
   15.7292   -0.7417    0.0000 N   0  0
   10.2542    5.7792    0.0000 N   0  0
    8.4750   -3.9917    0.0000 O   0  0
   11.4542   -2.0125    0.0000 O   0  0
    3.9625   -4.0167    0.0000 O   0  0
    1.7167   -1.8542    0.0000 O   0  0
    6.2125   -1.8542    0.0000 O   0  0
   -0.5333   -4.0167    0.0000 O   0  0
   10.6125    0.9875    0.0000 O   0  0
   -1.2833   -1.8542    0.0000 C   0  0
    0.9667   -4.0167    0.0000 C   0  0
   13.6667    1.6000    0.0000 O   0  0
   -1.2833   -4.4542    0.0000 O   0  0
    4.4417   -5.0167    0.0000 O   0  0
   14.2375   -0.6167    0.0000 N   0  0
   10.8917    4.4292    0.0000 N   0  0
   -2.7458   -4.4292    0.0000 C   0  0
   14.8750   -1.9750    0.0000 N   0  0
    9.4042    4.5542    0.0000 N   0  0
   13.0292    2.9583    0.0000 N   0  0
    9.4125   -3.5167    0.0000 C   0  0
    3.2167   -1.8542    0.0000 C   0  0
    5.8167   -5.4042    0.0000 N   0  0
   -0.5333   -1.4250    0.0000 C   0  0
    0.9667   -0.5625    0.0000 C   0  0
    1.7167   -4.4542    0.0000 C   0  0
   -2.7458   -5.2542    0.0000 C   0  0
   -0.5333   -0.5625    0.0000 C   0  0
    0.2167   -1.8542    0.0000 C   0  0
    6.2042    0.5625    0.0000 N   0  0
    0.9667   -1.4250    0.0000 C   0  0
    0.2167   -0.1292    0.0000 C   0  0
   10.5917   -2.7750    0.0000 C   0  0
    1.7167   -0.1292    0.0000 O   0  0
   10.2667   -3.5750    0.0000 C   0  0
    7.6792   -1.8792    0.0000 C   0  0
   11.9625   -0.8625    0.0000 C   0  0
   11.4667    2.2208    0.0000 C   0  0
   10.8292    3.5833    0.0000 C   0  0
   13.4542   -0.9875    0.0000 C   0  0
    6.2250   -0.2625    0.0000 C   0  0
    3.9625   -1.4250    0.0000 C   0  0
    2.4667   -1.4250    0.0000 C   0  0
    1.7167    0.7375    0.0000 C   0  0
    1.7167   -5.3167    0.0000 C   0  0
    2.4667   -4.0167    0.0000 C   0  0
   -2.0333   -5.6667    0.0000 C   0  0
   -3.4625   -5.6667    0.0000 C   0  0
   12.7417   -0.4917    0.0000 C   0  0
   11.5375    3.0833    0.0000 C   0  0
    6.9625   -1.4875    0.0000 C   0  0
    6.9417   -0.6625    0.0000 C   0  0
    2.4667    1.1708    0.0000 C   0  0
   -2.0333   -6.4875    0.0000 C   0  0
    3.2167   -4.4542    0.0000 C   0  0
    2.4667   -5.7500    0.0000 C   0  0
   -3.4708   -6.4917    0.0000 C   0  0
   -2.7500   -6.9042    0.0000 C   0  0
    3.2167   -5.3167    0.0000 C   0  0
  2  1  1  0
  7  3  1  1
  4 11  1  0
 13  5  1  1
  6  5  1  0
  7  1  1  0
  8 14  1  0
  9 12  1  0
 10 28  1  0
 16 11  1  6
 19 12  1  6
 13  4  1  0
 20 14  1  1
 15  3  1  0
 16  8  1  0
 17 10  1  0
 16 18  1  0
 19  6  1  0
 20  2  1  0
 21  9  1  0
 22 45  2  0
 23 44  2  0
 24 25  1  0
 21 25  1  6
 26 29  1  0
 27 18  1  0
 28 15  1  6
 29 17  1  1
 30 23  1  0
 31 22  1  0
 32  2  2  0
 33  3  2  0
 34  4  2  0
 35  6  2  0
 36  8  2  0
 37  9  2  0
 38 10  2  0
 21 39  1  0
 19 40  1  0
 41 26  2  0
 42 24  2  0
 43 27  2  0
 44 69  1  0
 45 68  1  0
 46 24  1  0
 47 23  1  0
 48 22  1  0
 49 26  1  0
 50  1  1  0
 13 51  1  0
 52 27  1  0
 53 39  1  0
 54 60  2  0
 55 40  1  0
 56 46  1  0
 57 53  1  0
 58 53  2  0
 59 70  1  0
 60 58  1  0
 61 57  2  0
  7 62  1  0
 63 54  1  0
 64 50  1  0
 20 65  1  0
 28 66  1  0
 29 67  1  0
 68 79  1  0
 69 78  1  0
 70 81  1  0
 71 51  1  0
 72 51  1  0
 73 63  1  0
 74 55  2  0
 75 55  1  0
 76 56  1  0
 77 56  2  0
 78 66  1  0
 79 67  1  0
 80 65  1  0
 81 80  1  0
 82 73  1  0
 83 76  2  0
 84 75  2  0
 85 74  1  0
 86 77  1  0
 87 86  2  0
 88 84  1  0
 64 62  1  0
 88 85  2  0
 61 54  1  0
 83 87  1  0
M  END