
          11290715552D 1   1.00000     0.00000     0

 36 39  0     0  0            999 V2000
   -1.2412    0.5171    0.0000 C   0  0  0  0  0  0           0  0  0
   -0.8214   -0.1959    0.0000 C   0  0  0  0  0  0           0  0  0
    0.0041   -0.1878    0.0000 C   0  0  0  0  0  0           0  0  0
    0.4107    0.5325    0.0000 C   0  0  0  0  0  0           0  0  0
   -0.0142    1.2461    0.0000 C   0  0  0  0  0  0           0  0  0
   -0.8382    1.2345    0.0000 C   0  0  0  0  0  0           0  0  0
    1.2356    0.5420    0.0000 O   0  0  0  0  0  0           0  0  0
    0.4235   -0.8982    0.0000 O   0  0  0  0  0  0           0  0  0
    0.0180   -1.6167    0.0000 C   0  0  0  0  0  0           0  0  0
    1.6399    1.2612    0.0000 C   0  0  0  0  0  0           0  0  0
    2.4648    1.2707    0.0000 C   0  0  0  0  0  0           0  0  0
    2.8816    0.5576    0.0000 C   0  0  0  0  0  0           0  0  0
    3.7058    0.5668    0.0000 C   0  0  0  0  0  0           0  0  0
    4.1109    1.2865    0.0000 C   0  0  0  0  0  0           0  0  0
    3.6857    1.9985    0.0000 C   0  0  0  0  0  0           0  0  0
    2.8629    1.9858    0.0000 C   0  0  0  0  0  0           0  0  0
    2.4750   -0.1602    0.0000 C   0  0  0  0  0  0           0  0  0
    2.8934   -0.8713    0.0000 O   0  0  0  0  0  0           0  0  0
    3.7184   -0.8645    0.0000 C   0  0  0  0  0  0           0  0  0
    4.1324   -1.5770    0.0000 C   0  0  0  0  0  0           0  0  0
    4.9566   -1.5706    0.0000 C   0  0  0  0  0  0           0  0  0
    5.3641   -0.8522    0.0000 C   0  0  0  0  0  0           0  0  0
    4.9412   -0.1388    0.0000 C   0  0  0  0  0  0           0  0  0
    4.1184   -0.1488    0.0000 C   0  0  0  0  0  0           0  0  0
    6.1890   -0.8443    0.0000 C   0  0  0  0  0  0           0  0  0
    6.5947   -0.1259    0.0000 O   0  0  0  0  0  0           0  0  0
    3.7237   -2.2937    0.0000 O   0  0  0  0  0  0           0  0  0
    2.8987   -2.2981    0.0000 C   0  0  0  0  0  0           0  0  0
   -2.0661    0.5087    0.0000 C   0  0  0  0  0  0           0  0  0
   -2.4859    1.2189    0.0000 C   0  0  0  0  0  0           0  0  0
   -2.1547    1.9775    0.0000 C   0  0  0  0  0  0           0  0  0
   -2.7734    2.5233    0.0000 N   0  0  0  0  0  0           0  0  0
   -3.4837    2.1035    0.0000 C   0  0  0  0  0  0           0  0  0
   -3.3038    1.2984    0.0000 S   0  0  0  0  0  0           0  0  0
   -4.2408    2.4313    0.0000 S   0  0  0  0  0  0           0  0  0
   -1.3493    2.1561    0.0000 O   0  0  0  0  0  0           0  0  0
 17 18  1  0     0  0
  8  9  1  0     0  0
 18 19  1  0     0  0
  4  5  1  0     0  0
 19 20  2  0     0  0
  7 10  1  0     0  0
 20 21  1  0     0  0
  2  3  1  0     0  0
 21 22  2  0     0  0
 10 11  1  0     0  0
 22 23  1  0     0  0
  5  6  2  0     0  0
 23 24  2  0     0  0
 24 19  1  0     0  0
 11 12  2  0     0  0
 22 25  1  0     0  0
  6  1  1  0     0  0
 25 26  2  0     0  0
 12 13  1  0     0  0
 20 27  1  0     0  0
  1  2  2  0     0  0
 27 28  1  0     0  0
 13 14  2  0     0  0
  1 29  1  0     0  0
  4  7  1  0     0  0
 29 30  2  0     0  0
 30 31  1  0     0  0
 14 15  1  0     0  0
  3  4  2  0     0  0
 15 16  2  0     0  0
 16 11  1  0     0  0
 31 32  1  0     0  0
 32 33  1  0     0  0
 33 34  1  0     0  0
 34 30  1  0     0  0
  3  8  1  0     0  0
 33 35  2  0     0  0
 12 17  1  0     0  0
 31 36  2  0     0  0
M  END