
  SciTegic05071316162D

 19 20  0  0  0  0            999 V2000
    4.3982  -15.0602    0.0000 C   0  0
    4.3971  -15.8798    0.0000 C   0  0
    5.1051  -16.2887    0.0000 C   0  0
    5.8148  -15.8793    0.0000 C   0  0
    5.8119  -15.0566    0.0000 C   0  0
    5.1033  -14.6514    0.0000 C   0  0
    3.6904  -14.6518    0.0000 C   0  0  1  0  0  0
    2.9828  -15.0606    0.0000 C   0  0
    2.2750  -14.6521    0.0000 C   0  0
    1.5674  -15.0609    0.0000 N   0  0
    0.8214  -14.7248    0.0000 N   0  0
    0.2747  -15.3322    0.0000 C   0  0
    0.6835  -16.0399    0.0000 N   0  0
    1.4827  -15.8696    0.0000 C   0  0
    3.6902  -13.8346    0.0000 C   0  0
    4.3978  -13.4258    0.0000 C   0  0
    5.1056  -13.8343    0.0000 C   0  0
    6.5231  -16.2868    0.0000 O   0  0
    6.5244  -17.1040    0.0000 C   0  0
  1  2  2  0
  2  3  1  0
  3  4  2  0
  4  5  1  0
  5  6  2  0
  6  1  1  0
  1  7  1  0
  7  8  1  0
  8  9  1  0
  9 10  1  0
 10 11  1  0
 11 12  2  0
 12 13  1  0
 13 14  2  0
 14 10  1  0
  7 15  1  1
 15 16  1  0
 16 17  1  0
  4 18  1  0
 18 19  1  0
M  END