
  SciTegic09081514182D

 71 79  0  0  0  0            999 V2000
    0.0388   -7.5016    0.0000 N   0  0
    0.0254   -6.0008    0.0000 C   0  0
   -1.2788   -5.2598    0.0000 C   0  0
   -1.2891   -3.7598    0.0000 C   0  0
    0.0046   -3.0009    0.0000 C   0  0
    1.3089   -3.7420    0.0000 C   0  0
    1.3192   -5.2419    0.0000 C   0  0
    0.0000   -1.5002    0.0000 C   0  0
    0.0000    1.5002    0.0000 O   0  0
   -1.2989   -0.7501    0.0000 C   0  0
   -1.2989    0.7501    0.0000 C   0  0
   -2.5978    1.5002    0.0000 C   0  0
   -3.8968    0.7501    0.0000 C   0  0
   -3.8968   -0.7501    0.0000 C   0  0
   -2.5978   -1.5002    0.0000 C   0  0
    1.2806    0.7501    0.0000 C   0  0
    1.2806   -0.7501    0.0000 C   0  0
    2.5978   -1.5002    0.0000 C   0  0
    3.8968   -0.7501    0.0000 C   0  0
    3.8968    0.7501    0.0000 C   0  0
    2.5978    1.5002    0.0000 C   0  0
   -4.9360    1.3500    0.0000 O   0  0
   -2.5955   -3.0210    0.0000 C   0  0
   -3.6297   -3.6296    0.0000 O   0  0
   -2.6041   -2.0211    0.0000 O   0  0
    4.9360    1.3500    0.0000 O   0  0
   -7.6994  -12.0107    0.0000 C   0  0
   -6.4016  -12.7629    0.0000 C   0  0
   -5.1013  -12.0149    0.0000 C   0  0
   -5.0989  -10.5149    0.0000 C   0  0
   -6.3968   -9.7628    0.0000 C   0  0
   -7.6970  -10.5107    0.0000 C   0  0
   -8.9940   -9.7555    0.0000 N   0  0
   -8.9895   -8.2547    0.0000 C   0  0
   -8.7396  -12.6090    0.0000 C   0  0
  -10.2865   -7.4995    0.0000 C   0  0
   -7.9482   -7.6582    0.0000 O   0  0
  -10.2841   -5.9995    0.0000 C   0  0
  -11.5819   -5.2474    0.0000 C   0  0
  -12.8822   -5.9953    0.0000 C   0  0
  -12.8846   -7.4953    0.0000 C   0  0
  -11.5868   -8.2474    0.0000 C   0  0
   -6.4016  -14.2636    0.0000 C   0  0
   -7.7006  -15.0136    0.0000 C   0  0
   -7.7007  -16.5136    0.0000 N   0  0
   -6.4016  -17.2636    0.0000 C   0  0
   -5.1025  -16.5137    0.0000 C   0  0
   -5.1026  -15.0137    0.0000 N   0  0
  -14.1807   -5.2428    0.0000 C   0  0
  -14.1795   -4.0428    0.0000 C   0  0
  -15.2207   -5.8414    0.0000 C   0  0
  -15.2192   -4.6416    0.0000 C   0  0
   -8.7399  -17.1136    0.0000 C   0  0
   -6.4017  -18.4636    0.0000 O   0  0
   -3.8012  -17.2615    0.0000 N   0  0
   -2.5025  -16.5093    0.0000 C   0  0
   -1.2009  -17.2548    0.0000 C   0  0
    0.0955  -16.5003    0.0000 C   0  0
    0.0905  -15.0003    0.0000 C   0  0
   -1.2112  -14.2548    0.0000 C   0  0
   -2.5077  -15.0093    0.0000 C   0  0
    1.3861  -14.2428    0.0000 C   0  0
    2.4284  -14.8374    0.0000 O   0  0
    1.3788  -12.7420    0.0000 N   0  0
    2.6727  -11.9830    0.0000 C   0  0
    2.6623  -10.4831    0.0000 C   0  0
    1.3581   -9.7420    0.0000 N   0  0
    0.0643  -10.5010    0.0000 C   0  0
    0.0746  -12.0010    0.0000 C   0  0
    1.3447   -8.2412    0.0000 C   0  0
    2.3787   -7.6323    0.0000 S   0  0
  1  2  1  0
  2  3  2  0
  3  4  1  0
  4  5  2  0
  5  6  1  0
  6  7  2  0
  7  2  1  0
  8 17  1  0
  8 10  2  0
 16  9  1  0
  9 11  1  0
  5  8  1  0
 10 11  1  0
 10 15  1  0
 11 12  2  0
 12 13  1  0
 13 14  1  0
 14 15  2  0
 16 17  2  0
 17 18  1  0
 18 19  2  0
 19 20  1  0
 20 21  2  0
 21 16  1  0
 13 22  2  0
  4 23  1  0
 23 24  2  0
 23 25  1  0
 20 26  1  0
 27 28  2  0
 28 29  1  0
 29 30  2  0
 30 31  1  0
 31 32  2  0
 32 27  1  0
 32 33  1  0
 33 34  1  0
 27 35  1  0
 34 36  1  0
 34 37  2  0
 36 38  2  0
 38 39  1  0
 39 40  2  0
 40 41  1  0
 41 42  2  0
 42 36  1  0
 43 44  2  0
 44 45  1  0
 45 46  1  0
 46 47  1  0
 47 48  2  0
 48 43  1  0
 28 43  1  0
 40 49  1  0
 49 50  1  0
 49 51  1  0
 49 52  1  0
 45 53  1  0
 46 54  2  0
 47 55  1  0
 55 56  1  0
 56 57  2  0
 57 58  1  0
 58 59  2  0
 59 60  1  0
 60 61  2  0
 61 56  1  0
 59 62  1  0
 62 63  2  0
 62 64  1  0
 64 65  1  0
 64 69  1  0
 65 66  1  0
 66 67  1  0
 67 68  1  0
 68 69  1  0
 67 70  1  0
 70  1  1  0
 70 71  2  0
M  END