
  SciTegic12171313052D

 32 37  0  0  0  0            999 V2000
   18.8734   -5.4435    0.0000 C   0  0
   18.8901   -6.2676    0.0000 C   0  0
   18.1842   -6.6947    0.0000 C   0  0
   17.4625   -6.2937    0.0000 C   0  0
   17.4458   -5.4697    0.0000 C   0  0
   18.1517   -5.0426    0.0000 N   0  0
   19.6544   -5.1741    0.0000 N   0  0
   19.6814   -6.5065    0.0000 C   0  0
   20.1516   -5.8290    0.0000 C   0  0
   16.7525   -6.7200    0.0000 C   0  0
   16.7692   -7.5441    0.0000 C   0  0
   16.0633   -7.9712    0.0000 C   0  0
   15.3416   -7.5702    0.0000 C   0  0
   15.3249   -6.7462    0.0000 C   0  0
   16.0300   -6.3232    0.0000 C   0  0
   14.6357   -7.9973    0.0000 C   0  0
   13.9132   -7.6004    0.0000 N   0  0
   13.2074   -8.0276    0.0000 C   0  0
   12.4856   -7.6266    0.0000 C   0  0
   12.4690   -6.8026    0.0000 N   0  0
   13.1748   -6.3754    0.0000 C   0  0
   13.8966   -6.7765    0.0000 C   0  0
   11.7472   -6.4016    0.0000 C   0  0
   20.5897   -9.6677    0.0000 N   0  0
   19.8453  -10.0136    0.0000 C   0  0
   19.2789   -9.4150    0.0000 C   0  0
   19.6806   -8.6891    0.0000 C   0  0
   19.4103   -7.9123    0.0000 C   0  0
   19.9509   -7.2876    0.0000 C   0  0
   20.7609   -7.4437    0.0000 C   0  0
   21.0304   -8.2247    0.0000 C   0  0
   20.4906   -8.8454    0.0000 C   0  0
  1  2  1  0
  2  3  2  0
  3  4  1  0
  4  5  2  0
  5  6  1  0
  1  6  2  0
  8  9  2  0
  7  9  1  0
  1  7  1  0
  2  8  1  0
 10 11  1  0
 11 12  2  0
 12 13  1  0
 13 14  2  0
 14 15  1  0
 10 15  2  0
 17 18  1  0
 18 19  1  0
 19 20  1  0
 20 21  1  0
 21 22  1  0
 17 22  1  0
 20 23  1  0
 16 17  1  0
 13 16  1  0
  4 10  1  0
 24 25  1  0
 25 26  2  0
 26 27  1  0
 27 28  1  0
 28 29  2  0
 29 30  1  0
 30 31  2  0
 31 32  1  0
 24 32  1  0
 27 32  2  0
  8 29  1  0
M  END