
          11280715062D 1   1.00000     0.00000     0

 17 17  0     0  0            999 V2000
    5.1875   -2.6292    0.0000 C   0  0  0  0  0  0           0  0  0
   -0.5250   -2.6292    0.0000 N   0  0  0  0  0  0           0  0  0
   -0.8083   -1.3167    0.0000 N   0  0  0  0  0  0           0  0  0
   -1.1458   -2.0750    0.0000 C   0  0  0  0  0  0           0  0  0
    0.1875   -2.2167    0.0000 C   0  0  0  0  0  0           0  0  0
    5.9042   -2.2167    0.0000 N   0  0  0  0  0  0           0  0  0
    5.1875   -3.4542    0.0000 S   0  0  0  0  0  0           0  0  0
    0.0167   -1.4042    0.0000 C   0  0  0  0  0  0           0  0  0
    4.4750   -2.2167    0.0000 N   0  0  0  0  0  0           0  0  0
    6.6167   -2.6292    0.0000 C   0  0  3  0  0  0           0  0  0
    0.9042   -2.6292    0.0000 C   0  0  0  0  0  0           0  0  0
    3.7542   -2.6292    0.0000 C   0  0  0  0  0  0           0  0  0
    1.6167   -2.2167    0.0000 C   0  0  0  0  0  0           0  0  0
    3.0417   -2.2167    0.0000 C   0  0  0  0  0  0           0  0  0
    7.3292   -2.2167    0.0000 C   0  0  0  0  0  0           0  0  0
    6.6167   -3.4542    0.0000 C   0  0  0  0  0  0           0  0  0
    2.3292   -2.6292    0.0000 C   0  0  0  0  0  0           0  0  0
  2  5  1  0     0  0
  3  8  1  0     0  0
  4  2  2  0     0  0
  5 11  1  0     0  0
  6  1  2  0     0  0
  7  1  1  0     0  0
  8  5  2  0     0  0
  9  1  1  0     0  0
 10  6  1  0     0  0
 11 13  1  0     0  0
 12  9  1  0     0  0
 13 17  1  0     0  0
 14 12  1  0     0  0
 15 10  1  0     0  0
 16 10  1  0     0  0
 17 14  1  0     0  0
  3  4  1  0     0  0
M  END