
          11280714462D 1   1.00000     0.00000     0

 26 29  0     1  0            999 V2000
    4.0625   -1.0250    0.0000 C   0  0  0  0  0  0           0  0  0
    4.0542   -1.6292    0.0000 C   0  0  0  0  0  0           0  0  0
    3.5375   -0.7292    0.0000 C   0  0  0  0  0  0           0  0  0
    4.6750   -1.9875    0.0000 S   0  0  0  0  0  0           0  0  0
    5.3625   -1.0292    0.0000 C   0  0  0  0  0  0           0  0  0
    5.3292   -1.5750    0.0000 C   0  0  0  0  0  0           0  0  0
    0.2917   -0.9125    0.0000 C   0  0  2  0  0  0           0  0  0
    0.7917   -0.5875    0.0000 C   0  0  2  0  0  0           0  0  0
    3.0250   -1.0292    0.0000 C   0  0  3  0  0  0           0  0  0
    1.8542   -0.9667    0.0000 N   0  0  0  0  0  0           0  0  0
   -0.3083   -0.9125    0.0000 O   0  0  0  0  0  0           0  0  0
    1.2542   -0.9667    0.0000 C   0  0  1  0  0  0           0  0  0
    3.5375   -1.9292    0.0000 C   0  0  0  0  0  0           0  0  0
    3.5292   -0.1292    0.0000 O   0  0  0  0  0  0           0  0  0
    2.4542   -0.7000    0.0000 C   0  0  0  0  0  0           0  0  0
    0.4417   -1.4917    0.0000 C   0  0  0  0  0  0           0  0  0
    3.0250   -1.6292    0.0000 C   0  0  0  0  0  0           0  0  0
    1.0417   -1.5250    0.0000 C   0  0  0  0  0  0           0  0  0
    0.7875    0.0125    0.0000 O   0  0  0  0  0  0           0  0  0
   -0.9083   -0.9125    0.0000 C   0  0  0  0  0  0           0  0  0
    6.0042   -2.1542    0.0000 C   0  0  0  0  0  0           0  0  0
   -1.2375   -0.4167    0.0000 C   0  0  0  0  0  0           0  0  0
   -1.1708   -1.4417    0.0000 C   0  0  0  0  0  0           0  0  0
   -1.7583   -1.4792    0.0000 C   0  0  0  0  0  0           0  0  0
   -1.8333   -0.4542    0.0000 C   0  0  0  0  0  0           0  0  0
   -2.0958   -0.9875    0.0000 C   0  0  0  0  0  0           0  0  0
  2  1  2  0     0  0
  3  1  1  0     0  0
  4  2  1  0     0  0
  5  1  1  0     0  0
  6  5  2  0     0  0
  7  8  1  0     0  0
  8 12  1  0     0  0
  9  3  1  0     0  0
 10 15  1  0     0  0
  7 11  1  1     0  0
 12 10  1  1     0  0
 13  2  1  0     0  0
 14  3  2  0     0  0
 15  9  1  0     0  0
 16 18  1  0     0  0
 17  9  1  0     0  0
 18 12  1  0     0  0
  8 19  1  1     0  0
 20 11  1  0     0  0
 21  6  1  0     0  0
 22 20  2  0     0  0
 23 20  1  0     0  0
 24 23  2  0     0  0
 25 22  1  0     0  0
 26 24  1  0     0  0
  6  4  1  0     0  0
 17 13  1  0     0  0
 16  7  1  0     0  0
 26 25  2  0     0  0
M  END