
  SciTegic04191616232D

 47 52  0  0  0  0            999 V2000
   -2.6111    0.7486    0.0000 C   0  0
   -2.6111   -0.7486    0.0000 C   0  0
   -1.2964   -1.4973    0.0000 C   0  0
   -1.2964    1.4973    0.0000 C   0  0
    0.0000    0.7486    0.0000 C   0  0
    0.0000   -0.7486    0.0000 C   0  0
    1.2964   -1.4973    0.0000 C   0  0
    2.5929   -0.7486    0.0000 C   0  0
    2.5929    0.7486    0.0000 N   0  0
    1.2964    1.4973    0.0000 C   0  0  1  0  0  0
    1.2964    2.9980    0.0000 C   0  0
    2.5942    3.7503    0.0000 C   0  0
    2.5918    5.2503    0.0000 C   0  0
    1.2915    5.9981    0.0000 C   0  0
   -0.0063    5.2460    0.0000 C   0  0
   -0.0038    3.7460    0.0000 C   0  0
    1.2895    7.1981    0.0000 Cl  0  0
    3.6321   -1.3486    0.0000 O   0  0
   -3.9091   -1.5019    0.0000 O   0  0
   -3.9072   -2.7019    0.0000 C   0  0
   -3.9091    1.5019    0.0000 O   0  0
   -3.9067    3.0027    0.0000 C   0  0
   -4.9447    3.6050    0.0000 C   0  0
   -2.8664    3.6008    0.0000 C   0  0
    3.8926    1.4990    0.0000 C   0  0
    3.8951    2.9990    0.0000 C   0  0
    5.1953    3.7469    0.0000 C   0  0
    6.4931    2.9949    0.0000 C   0  0
    6.4907    1.4949    0.0000 C   0  0
    5.1905    0.7469    0.0000 C   0  0
    7.7956    3.7405    0.0000 N   0  0
    9.0931    2.9862    0.0000 C   0  0
   10.3956    3.7318    0.0000 C   0  0  1  0  0  0
   11.6935    2.9798    0.0000 C   0  0
   12.9938    3.7277    0.0000 C   0  0
   12.9962    5.2277    0.0000 C   0  0  1  0  0  0
   11.6984    5.9798    0.0000 C   0  0
   10.3981    5.2319    0.0000 C   0  0
   14.2971    5.9760    0.0000 N   0  0
    7.7997    4.9405    0.0000 C   0  0
   14.3020    7.4760    0.0000 C   0  0
   15.6034    8.2218    0.0000 C   0  0
   16.9001    7.4677    0.0000 N   0  0
   16.8953    5.9677    0.0000 C   0  0
   15.5938    5.2218    0.0000 C   0  0
   15.6073    9.4218    0.0000 O   0  0
   17.9412    8.0643    0.0000 C   0  0
  1  2  2  0
  2  3  1  0
  3  6  2  0
  5  4  2  0
  4  1  1  0
  5  6  1  0
  5 10  1  0
  6  7  1  0
  7  8  1  0
  8  9  1  0
  9 10  1  0
 10 11  1  6
 11 12  2  0
 12 13  1  0
 13 14  2  0
 14 15  1  0
 15 16  2  0
 16 11  1  0
 14 17  1  0
  8 18  2  0
  2 19  1  0
 19 20  1  0
  1 21  1  0
 21 22  1  0
 22 23  1  0
 22 24  1  0
  9 25  1  0
 25 26  2  0
 26 27  1  0
 27 28  2  0
 28 29  1  0
 29 30  2  0
 30 25  1  0
 28 31  1  0
 31 32  1  0
 33 32  1  6
 33 34  1  0
 34 35  1  0
 35 36  1  0
 36 37  1  0
 37 38  1  0
 38 33  1  0
 36 39  1  1
 31 40  1  0
 39 41  1  0
 39 45  1  0
 41 42  1  0
 42 43  1  0
 43 44  1  0
 44 45  1  0
 42 46  2  0
 43 47  1  0
M  END