
          11280714582D 1   1.00000     0.00000     0

 36 40  0     0  0            999 V2000
    5.8167   -3.8042    0.0000 C   0  0  0  0  0  0           0  0  0
    6.5292   -4.2167    0.0000 N   0  0  0  0  0  0           0  0  0
    5.1000   -4.2167    0.0000 C   0  0  0  0  0  0           0  0  0
    4.3792   -8.7542    0.0000 C   0  0  0  0  0  0           0  0  0
    3.6292   -9.0875    0.0000 N   0  0  0  0  0  0           0  0  0
    3.0792   -8.4750    0.0000 N   0  0  0  0  0  0           0  0  0
    4.2917   -7.9292    0.0000 N   0  0  0  0  0  0           0  0  0
    3.4917   -7.7625    0.0000 N   0  0  0  0  0  0           0  0  0
    5.1000   -9.1625    0.0000 C   0  0  0  0  0  0           0  0  0
    5.1000   -5.0417    0.0000 N   0  0  3  0  0  0           0  0  0
    7.2417   -3.8000    0.0000 C   0  0  0  0  0  0           0  0  0
    4.3875   -3.8042    0.0000 N   0  0  0  0  0  0           0  0  0
    5.8167   -8.7500    0.0000 C   0  0  0  0  0  0           0  0  0
    7.9625   -4.2125    0.0000 C   0  0  0  0  0  0           0  0  0
    5.8167   -2.9792    0.0000 C   0  0  0  0  0  0           0  0  0
    5.1000   -2.5667    0.0000 N   0  0  0  0  0  0           0  0  0
    4.3875   -2.9792    0.0000 C   0  0  0  0  0  0           0  0  0
    5.8167   -7.9292    0.0000 C   0  0  0  0  0  0           0  0  0
    5.8167   -5.4542    0.0000 C   0  0  0  0  0  0           0  0  0
    7.9667   -5.0375    0.0000 O   0  0  0  0  0  0           0  0  0
    7.2417   -2.9667    0.0000 C   0  0  0  0  0  0           0  0  0
    6.5250   -2.5625    0.0000 C   0  0  0  0  0  0           0  0  0
    6.5292   -7.5125    0.0000 C   0  0  0  0  0  0           0  0  0
    5.1000   -7.5167    0.0000 C   0  0  0  0  0  0           0  0  0
    5.8167   -6.2792    0.0000 C   0  0  0  0  0  0           0  0  0
    8.6750   -3.7917    0.0000 O   0  0  0  0  0  0           0  0  0
    5.1000   -6.6917    0.0000 C   0  0  0  0  0  0           0  0  0
    6.5292   -6.6917    0.0000 C   0  0  0  0  0  0           0  0  0
    4.3875   -5.4542    0.0000 C   0  0  0  0  0  0           0  0  0
    5.1000   -9.9875    0.0000 C   0  0  0  0  0  0           0  0  0
    6.5292   -9.1542    0.0000 C   0  0  0  0  0  0           0  0  0
    3.6667   -5.0417    0.0000 C   0  0  0  0  0  0           0  0  0
    2.9542   -5.4542    0.0000 C   0  0  0  0  0  0           0  0  0
    6.5292   -9.9792    0.0000 C   0  0  0  0  0  0           0  0  0
    5.8167  -10.4000    0.0000 C   0  0  0  0  0  0           0  0  0
    2.2417   -5.0417    0.0000 C   0  0  0  0  0  0           0  0  0
  2  1  1  0     0  0
  3  1  2  0     0  0
  4  9  1  0     0  0
  5  4  1  0     0  0
  6  5  2  0     0  0
  7  4  2  0     0  0
  8  7  1  0     0  0
  9 13  2  0     0  0
 10  3  1  0     0  0
 11  2  2  0     0  0
 12  3  1  0     0  0
 13 18  1  0     0  0
 14 11  1  0     0  0
 15  1  1  0     0  0
 16 15  2  0     0  0
 17 16  1  0     0  0
 18 23  1  0     0  0
 19 10  1  0     0  0
 20 14  2  0     0  0
 21 22  2  0     0  0
 22 15  1  0     0  0
 23 28  2  0     0  0
 24 27  1  0     0  0
 25 19  1  0     0  0
 26 14  1  0     0  0
 27 25  2  0     0  0
 28 25  1  0     0  0
 29 10  1  0     0  0
 30  9  1  0     0  0
 31 13  1  0     0  0
 32 29  1  0     0  0
 33 32  1  0     0  0
 34 31  2  0     0  0
 35 34  1  0     0  0
 36 33  1  0     0  0
 21 11  1  0     0  0
 17 12  2  0     0  0
 18 24  2  0     0  0
 35 30  2  0     0  0
  6  8  1  0     0  0
M  END