
          11280714552D 1   1.00000     0.00000     0

 23 26  0     0  0            999 V2000
    5.9792   -7.6042    0.0000 C   0  0  0  0  0  0           0  0  0
    6.8042   -7.6042    0.0000 C   0  0  0  0  0  0           0  0  0
    7.5500   -4.5542    0.0000 N   0  0  3  0  0  0           0  0  0
    5.9792   -8.4167    0.0000 C   0  0  0  0  0  0           0  0  0
    7.5500   -5.9917    0.0000 C   0  0  3  0  0  0           0  0  0
    4.5500   -7.6125    0.0000 C   0  0  0  0  0  0           0  0  0
    5.2667   -8.8500    0.0000 N   0  0  0  0  0  0           0  0  0
    7.5167   -7.2000    0.0000 O   0  0  0  0  0  0           0  0  0
    6.0792   -5.9917    0.0000 C   0  0  0  0  0  0           0  0  0
    8.2667   -6.5250    0.0000 C   0  0  3  0  0  0           0  0  0
    5.9875   -3.9625    0.0000 C   0  0  0  0  0  0           0  0  0
    6.9250   -3.9625    0.0000 C   0  0  0  0  0  0           0  0  0
    5.5500   -4.7750    0.0000 C   0  0  3  0  0  0           0  0  0
    4.5500   -8.4375    0.0000 C   0  0  0  0  0  0           0  0  0
    6.8000   -8.4292    0.0000 O   0  0  0  0  0  0           0  0  0
    5.6125   -3.1500    0.0000 O   0  0  0  0  0  0           0  0  0
    7.9542   -5.4167    0.0000 C   0  0  0  0  0  0           0  0  0
    6.3000   -5.4292    0.0000 C   0  0  0  0  0  0           0  0  0
    8.3042   -4.2292    0.0000 C   0  0  0  0  0  0           0  0  0
    3.8417   -7.2000    0.0000 C   0  0  0  0  0  0           0  0  0
    3.8417   -8.8417    0.0000 C   0  0  0  0  0  0           0  0  0
    3.1250   -7.6125    0.0000 C   0  0  0  0  0  0           0  0  0
    3.1292   -8.4417    0.0000 C   0  0  0  0  0  0           0  0  0
  2  1  1  0     0  0
  3  5  1  0     0  0
  4  1  2  0     0  0
  5 10  1  0     0  0
  6  1  1  0     0  0
  7  4  1  0     0  0
  8  2  1  0     0  0
  9  5  1  0     0  0
 10  8  1  0     0  0
 11 13  1  0     0  0
 12  3  1  0     0  0
 13 18  1  0     0  0
 14  6  2  0     0  0
 15  2  2  0     0  0
 16 11  2  0     0  0
 17 10  1  0     0  0
 18 17  1  0     0  0
 19  3  1  0     0  0
 20  6  1  0     0  0
 21 14  1  0     0  0
 22 20  2  0     0  0
 23 22  1  0     0  0
 14  7  1  0     0  0
 23 21  2  0     0  0
 13  9  1  0     0  0
 11 12  1  0     0  0
M  END