
          11280714472D 1   1.00000     0.00000     0

 14 15  0     0  0            999 V2000
    1.2417    0.0333    0.0000 C   0  0  0  0  0  0           0  0  0
    0.7167    0.3333    0.0000 C   0  0  0  0  0  0           0  0  0
    1.2417   -0.5667    0.0000 C   0  0  0  0  0  0           0  0  0
    2.2792   -0.5667    0.0000 N   0  0  3  0  0  0           0  0  0
    0.2000    0.0333    0.0000 N   0  0  0  0  0  0           0  0  0
    0.7167    0.9375    0.0000 C   0  0  0  0  0  0           0  0  0
    1.7542    0.3333    0.0000 C   0  0  0  0  0  0           0  0  0
    1.7542   -0.8667    0.0000 C   0  0  0  0  0  0           0  0  0
    2.2792    0.0333    0.0000 C   0  0  0  0  0  0           0  0  0
    1.2375    1.2458    0.0000 F   0  0  0  0  0  0           0  0  0
    2.7917   -0.8667    0.0000 C   0  0  0  0  0  0           0  0  0
   -0.3208    0.3333    0.0000 C   0  0  0  0  0  0           0  0  0
    0.2000    1.2375    0.0000 C   0  0  0  0  0  0           0  0  0
   -0.3208    0.9375    0.0000 C   0  0  0  0  0  0           0  0  0
  2  1  1  0     0  0
  3  1  2  0     0  0
  4  9  1  0     0  0
  5  2  2  0     0  0
  6  2  1  0     0  0
  7  1  1  0     0  0
  8  3  1  0     0  0
  9  7  1  0     0  0
 10  6  1  0     0  0
 11  4  1  0     0  0
 12  5  1  0     0  0
 13  6  2  0     0  0
 14 13  1  0     0  0
  8  4  1  0     0  0
 14 12  2  0     0  0
M  END