
          02060813482D 1   1.00000     0.00000     0

 44 47  0     0  0            999 V2000
   -4.5139   -2.1666    0.0000 C   0  0  0  0  0  0           0  0  0
   -4.5151   -2.9940    0.0000 C   0  0  0  0  0  0           0  0  0
   -3.8003   -3.4069    0.0000 C   0  0  0  0  0  0           0  0  0
   -3.0838   -2.9935    0.0000 C   0  0  0  0  0  0           0  0  0
   -3.0867   -2.1630    0.0000 C   0  0  0  0  0  0           0  0  0
   -3.8021   -1.7539    0.0000 C   0  0  0  0  0  0           0  0  0
   -5.2299   -3.4059    0.0000 Cl  0  0  0  0  0  0           0  0  0
   -3.8045   -0.9289    0.0000 C   0  0  0  0  0  0           0  0  0
   -3.0913   -0.5142    0.0000 N   0  0  3  0  0  0           0  0  0
   -3.0938    0.3108    0.0000 C   0  0  0  0  0  0           0  0  0
   -2.3805    0.7254    0.0000 C   0  0  3  0  0  0           0  0  0
   -3.8095    0.7211    0.0000 O   0  0  0  0  0  0           0  0  0
   -2.3738   -1.7478    0.0000 O   0  0  0  0  0  0           0  0  0
   -2.3687   -3.4049    0.0000 C   0  0  0  0  0  0           0  0  0
   -2.3723   -4.2303    0.0000 C   0  0  0  0  0  0           0  0  0
   -1.6580   -4.6416    0.0000 C   0  0  0  0  0  0           0  0  0
   -0.9432   -4.2279    0.0000 C   0  0  0  0  0  0           0  0  0
   -0.9472   -3.3986    0.0000 C   0  0  0  0  0  0           0  0  0
   -1.6620   -2.9910    0.0000 N   0  0  0  0  0  0           0  0  0
   -0.2348   -2.9825    0.0000 O   0  0  0  0  0  0           0  0  0
   -0.2276   -4.6383    0.0000 C   0  0  0  0  0  0           0  0  0
    0.4833   -5.0500    0.0000 N   0  0  0  0  0  0           0  0  0
   -1.6571   -5.4666    0.0000 C   0  0  0  0  0  0           0  0  0
   -2.3706   -5.8749    0.0000 C   0  0  0  0  0  0           0  0  0
   -2.3700   -6.6991    0.0000 C   0  0  0  0  0  0           0  0  0
   -1.6546   -7.1117    0.0000 C   0  0  0  0  0  0           0  0  0
   -0.9382   -6.6940    0.0000 C   0  0  0  0  0  0           0  0  0
   -0.9423   -5.8711    0.0000 C   0  0  0  0  0  0           0  0  0
   -3.0844   -5.4613    0.0000 Cl  0  0  0  0  0  0           0  0  0
   -0.2218   -7.1032    0.0000 C   0  0  3  0  0  0           0  0  0
    0.4875   -7.5125    0.0000 F   0  0  0  0  0  0           0  0  0
    0.1889   -6.3877    0.0000 F   0  0  0  0  0  0           0  0  0
   -0.6273   -7.8216    0.0000 F   0  0  0  0  0  0           0  0  0
   -2.3756   -0.9246    0.0000 C   0  0  0  0  0  0           0  0  0
   -1.6701    0.3122    0.0000 C   0  0  0  0  0  0           0  0  0
   -0.9590    0.7234    0.0000 C   0  0  0  0  0  0           0  0  0
   -0.9572    1.5487    0.0000 N   0  0  3  0  0  0           0  0  0
   -1.6727    1.9613    0.0000 C   0  0  0  0  0  0           0  0  0
   -2.3901    1.5485    0.0000 C   0  0  0  0  0  0           0  0  0
   -0.2424    1.9606    0.0000 C   0  0  0  0  0  0           0  0  0
    0.4718    1.5476    0.0000 C   0  0  0  0  0  0           0  0  0
   -0.2417    2.7856    0.0000 O   0  0  0  0  0  0           0  0  0
    1.1866    1.9595    0.0000 O   0  0  0  0  0  0           0  0  0
    1.9007    1.5464    0.0000 C   0  0  0  0  0  0           0  0  0
  2  3  1  0     0  0
 21 22  3  0     0  0
 10 11  1  0     0  0
 16 23  1  0     0  0
  5  6  2  0     0  0
 23 24  2  0     0  0
 10 12  2  0     0  0
 24 25  1  0     0  0
  6  1  1  0     0  0
 25 26  2  0     0  0
  5 13  1  0     0  0
 26 27  1  0     0  0
  1  2  2  0     0  0
 27 28  2  0     0  0
 28 23  1  0     0  0
  4 14  1  0     0  0
 24 29  1  0     0  0
  2  7  1  0     0  0
 27 30  1  0     0  0
 14 15  2  0     0  0
 30 31  1  0     0  0
  3  4  2  0     0  0
 30 32  1  0     0  0
 15 16  1  0     0  0
 30 33  1  0     0  0
  6  8  1  0     0  0
  9 34  1  0     0  0
 11 35  1  0     0  0
 16 17  2  0     0  0
 17 18  1  0     0  0
  8  9  1  0     0  0
 18 19  1  0     0  0
 11 39  1  0     0  0
 35 36  1  0     0  0
 36 37  1  0     0  0
 37 38  1  0     0  0
 38 39  1  0     0  0
 19 14  1  0     0  0
 37 40  1  0     0  0
  4  5  1  0     0  0
 40 41  1  0     0  0
 18 20  2  0     0  0
 40 42  2  0     0  0
  9 10  1  0     0  0
 41 43  1  0     0  0
 17 21  1  0     0  0
 43 44  1  0     0  0
M  END