
  SciTegic06271217572D

 26 27  0  0  0  0            999 V2000
    3.9162   -6.9736    0.0000 S   0  0
    4.3285   -7.6881    0.0000 O   0  0
    4.7412   -6.9738    0.0000 O   0  0
    3.2027   -4.9083    0.0000 C   0  0
    3.2015   -5.7357    0.0000 C   0  0
    3.9164   -6.1486    0.0000 C   0  0
    4.6328   -5.7352    0.0000 C   0  0
    4.6299   -4.9047    0.0000 C   0  0
    3.9146   -4.4956    0.0000 C   0  0
    5.3429   -4.4895    0.0000 C   0  0
    6.0589   -4.8993    0.0000 C   0  0
    5.3397   -3.6645    0.0000 O   0  0
    6.7718   -4.4841    0.0000 S   0  0
    7.4878   -4.8939    0.0000 C   0  0
    7.4878   -5.7178    0.0000 N   0  0
    8.2030   -6.1275    0.0000 C   0  0
    8.9169   -5.7123    0.0000 C   0  0
    8.9111   -4.8830    0.0000 C   0  0
    8.1953   -4.4770    0.0000 N   0  0
    2.4867   -6.1476    0.0000 Cl  0  0
    3.2016   -7.3859    0.0000 N   0  0
    9.6225   -4.4653    0.0000 O   0  0
    8.2057   -6.9525    0.0000 C   0  0
    7.4926   -7.3674    0.0000 C   0  0
    8.9215   -7.3627    0.0000 C   0  0
    8.2000   -7.7750    0.0000 C   0  0
  2  1  2  0
 13 14  1  0
  7  8  1  0
 14 15  2  0
  4  5  2  0
 15 16  1  0
  8  9  2  0
 16 17  2  0
  9  4  1  0
 17 18  1  0
  1  3  2  0
 18 19  1  0
 19 14  1  0
  8 10  1  0
  5 20  1  0
  6  1  1  0
  5  6  1  0
  1 21  1  0
 10 11  1  0
 18 22  2  0
 16 23  1  0
 10 12  2  0
 23 24  1  0
  6  7  2  0
 23 25  1  0
 11 13  1  0
 23 26  1  0
M  END