
  SciTegic12231509382D

 11 11  0  0  0  0            999 V2000
    1.2990   -0.7500    0.0000 C   0  0
    1.2990    0.7500    0.0000 C   0  0
    3.6331    3.6061    0.0000 N   0  0
    2.5973   -1.5031    0.0000 O   0  0
    2.5972    1.5031    0.0000 C   0  0
    0.0000   -1.5000    0.0000 C   0  0
    0.0000    1.5000    0.0000 C   0  0
    2.5951    3.0039    0.0000 C   0  0
    2.5956   -2.7031    0.0000 C   0  0
   -1.2990   -0.7500    0.0000 C   0  0
   -1.2990    0.7500    0.0000 C   0  0
  1  2  2  0
  1  4  1  0
  2  5  1  0
  1  6  1  0
  2  7  1  0
  3  8  1  0
  5  8  1  0
  4  9  1  0
  6 10  2  0
  7 11  2  0
 10 11  1  0
M  END