
          05080814042D 1   1.00000     0.00000     0

 37 41  0     1  0            999 V2000
    7.5176   -5.2887    0.0000 C   0  0  0  0  0  0           0  0  0
    7.5165   -6.1150    0.0000 C   0  0  0  0  0  0           0  0  0
    8.2303   -6.5272    0.0000 C   0  0  0  0  0  0           0  0  0
    8.2285   -4.8764    0.0000 C   0  0  0  0  0  0           0  0  0
    8.9430   -5.2851    0.0000 C   0  0  0  0  0  0           0  0  0
    8.9464   -6.1170    0.0000 C   0  0  0  0  0  0           0  0  0
    9.6646   -6.5277    0.0000 C   0  0  0  0  0  0           0  0  0
    9.6577   -4.8638    0.0000 C   0  0  0  0  0  0           0  0  0
   10.3805   -5.2792    0.0000 C   0  0  2  0  0  0           0  0  0
   10.3816   -6.1128    0.0000 C   0  0  2  0  0  0           0  0  0
   11.1001   -6.5263    0.0000 N   0  0  3  0  0  0           0  0  0
   11.8221   -6.1110    0.0000 C   0  0  0  0  0  0           0  0  0
   11.8211   -5.2773    0.0000 C   0  0  1  0  0  0           0  0  0
   11.0980   -4.8592    0.0000 C   0  0  0  0  0  0           0  0  0
   11.1000   -7.3502    0.0000 C   0  0  0  0  0  0           0  0  0
   12.5344   -4.8651    0.0000 C   0  0  0  0  0  0           0  0  0
   13.2481   -5.2769    0.0000 N   0  0  3  0  0  0           0  0  0
   12.5342   -4.0413    0.0000 O   0  0  0  0  0  0           0  0  0
   13.2426   -6.1056    0.0000 C   0  0  0  0  0  0           0  0  0
   13.9521   -6.5172    0.0000 C   0  0  0  0  0  0           0  0  0
   14.6679   -6.1086    0.0000 N   0  0  3  0  0  0           0  0  0
   14.6696   -5.2838    0.0000 C   0  0  0  0  0  0           0  0  0
   13.9556   -4.8675    0.0000 C   0  0  0  0  0  0           0  0  0
   10.3735   -6.9365    0.0000 H   0  0  0  0  0  0           0  0  0
   10.3735   -4.4523    0.0000 H   0  0  0  0  0  0           0  0  0
   15.3779   -6.5203    0.0000 C   0  0  0  0  0  0           0  0  0
   15.3736   -7.3453    0.0000 C   0  0  0  0  0  0           0  0  0
   16.0848   -7.7597    0.0000 C   0  0  0  0  0  0           0  0  0
   16.8008   -7.3502    0.0000 C   0  0  0  0  0  0           0  0  0
   16.8011   -6.5220    0.0000 C   0  0  0  0  0  0           0  0  0
   16.0892   -6.1115    0.0000 C   0  0  0  0  0  0           0  0  0
   17.5187   -7.7648    0.0000 N   0  3  0  0  0  0           0  0  0
   18.2331   -7.3545    0.0000 O   0  0  0  0  0  0           0  0  0
   17.5169   -8.5887    0.0000 O   0  5  0  0  0  0           0  0  0
    8.2260   -4.0525    0.0000 C   0  0  0  0  0  0           0  0  0
    8.9384   -3.6385    0.0000 O   0  0  0  0  0  0           0  0  0
    7.5113   -3.6428    0.0000 C   0  0  0  0  0  0           0  0  0
  7 10  1  0     0  0
 16 18  2  0     0  0
 17 19  1  0     0  0
  9  8  1  0     0  0
  9 10  1  0     0  0
  5  4  2  0     0  0
  4  1  1  0     0  0
  5  6  1  0     0  0
 17 23  1  0     0  0
 19 20  1  0     0  0
 20 21  1  0     0  0
 21 22  1  0     0  0
 22 23  1  0     0  0
 10 24  1  1     0  0
  2  3  1  0     0  0
  9 25  1  6     0  0
  3  6  2  0     0  0
  9 14  1  0     0  0
 26 27  2  0     0  0
 10 11  1  0     0  0
 27 28  1  0     0  0
 11 12  1  0     0  0
 28 29  2  0     0  0
 12 13  1  0     0  0
 29 30  1  0     0  0
 13 14  1  0     0  0
 30 31  2  0     0  0
 31 26  1  0     0  0
 21 26  1  0     0  0
  1  2  2  0     0  0
 11 15  1  0     0  0
  5  8  1  0     0  0
 32 33  2  0     0  0
 32 34  1  0     0  0
 29 32  1  0     0  0
 13 16  1  1     0  0
  4 35  1  0     0  0
  6  7  1  0     0  0
 35 36  2  0     0  0
 16 17  1  0     0  0
 35 37  1  0     0  0
M  CHG  2  32   1  34  -1
M  END