
          02060813472D 1   1.00000     0.00000     0

 32 35  0     1  0            999 V2000
    8.1833  -20.2625    0.0000 C   0  0  0  0  0  0           0  0  0
    8.1833  -21.0875    0.0000 O   0  0  0  0  0  0           0  0  0
    8.8954  -21.4958    0.0000 C   0  0  0  0  0  0           0  0  0
    9.6074  -21.0875    0.0000 C   0  0  0  0  0  0           0  0  0
    9.6074  -20.2625    0.0000 N   0  0  3  0  0  0           0  0  0
    8.8954  -19.8458    0.0000 C   0  0  0  0  0  0           0  0  0
   10.3230  -19.8521    0.0000 C   0  0  0  0  0  0           0  0  0
   11.0363  -20.2667    0.0000 C   0  0  0  0  0  0           0  0  0
   10.3255  -19.0271    0.0000 O   0  0  0  0  0  0           0  0  0
   11.7520  -19.8563    0.0000 C   0  0  1  0  0  0           0  0  0
   11.7458  -19.0292    0.0000 C   0  0  0  0  0  0           0  0  0
   12.4674  -20.2672    0.0000 C   0  0  0  0  0  0           0  0  0
   12.4692  -21.0922    0.0000 O   0  0  0  0  0  0           0  0  0
   13.1809  -19.8531    0.0000 N   0  0  0  0  0  0           0  0  0
   13.8957  -20.2640    0.0000 C   0  0  2  0  0  0           0  0  0
   13.6741  -21.0581    0.0000 C   0  0  0  0  0  0           0  0  0
   14.3604  -21.5159    0.0000 C   0  0  0  0  0  0           0  0  0
   15.0080  -21.0046    0.0000 N   0  0  3  0  0  0           0  0  0
   14.7217  -20.2309    0.0000 C   0  0  0  0  0  0           0  0  0
   14.2419  -19.5113    0.0000 C   0  0  0  0  0  0           0  0  0
   14.5881  -18.7594    0.0000 N   0  0  0  0  0  0           0  0  0
   15.8022  -21.2279    0.0000 C   0  0  3  0  0  0           0  0  0
   15.9994  -22.0257    0.0000 C   0  0  0  0  0  0           0  0  0
   16.7896  -22.2499    0.0000 C   0  0  0  0  0  0           0  0  0
   17.3833  -21.6766    0.0000 C   0  0  0  0  0  0           0  0  0
   17.1812  -20.8757    0.0000 C   0  0  0  0  0  0           0  0  0
   16.3854  -20.6482    0.0000 C   0  0  0  0  0  0           0  0  0
   12.4572  -18.6114    0.0000 C   0  0  3  0  0  0           0  0  0
   13.2116  -18.9369    0.0000 C   0  0  0  0  0  0           0  0  0
   13.7590  -18.3197    0.0000 C   0  0  0  0  0  0           0  0  0
   13.3412  -17.6083    0.0000 C   0  0  0  0  0  0           0  0  0
   12.5356  -17.7859    0.0000 C   0  0  0  0  0  0           0  0  0
  1  2  1  0     0  0
  7  8  1  0     0  0
  1  6  1  0     0  0
  7  9  2  0     0  0
 16 17  1  0     0  0
 17 18  1  0     0  0
 18 19  1  0     0  0
  2  3  1  0     0  0
 15 20  1  0     0  0
  8 10  1  0     0  0
 20 21  3  0     0  0
  3  4  1  0     0  0
 18 22  1  0     0  0
 22 23  1  0     0  0
 10 11  1  1     0  0
  4  5  1  0     0  0
 10 12  1  0     0  0
  5  6  1  0     0  0
 12 13  2  0     0  0
 22 27  1  0     0  0
 23 24  1  0     0  0
 24 25  1  0     0  0
 25 26  1  0     0  0
 26 27  1  0     0  0
 11 28  1  0     0  0
 28 29  1  0     0  0
 12 14  1  0     0  0
  5  7  1  0     0  0
 15 14  1  1     0  0
 15 16  1  0     0  0
 29 30  1  0     0  0
 30 31  1  0     0  0
 31 32  1  0     0  0
 32 28  1  0     0  0
 15 19  1  0     0  0
M  END