
  SciTegic11201309402D

 75 83  0  0  1  0            999 V2000
    4.9542    2.5833    0.0000 S   0  0
    9.0667   -1.3167    0.0000 S   0  0
    7.1500   -0.5250    0.0000 C   0  0
    2.9042    2.3125    0.0000 C   0  0
    1.5917   -1.6542    0.0000 C   0  0  1  0  0  0
    3.0917   -2.0417    0.0000 C   0  0
    2.2875   -2.0375    0.0000 C   0  0  2  0  0  0
    3.7542   -3.9750    0.0000 C   0  0  2  0  0  0
    7.3167    0.2250    0.0000 C   0  0
    2.6542    3.0500    0.0000 C   0  0
    3.0875   -3.5917    0.0000 C   0  0  1  0  0  0
    2.2667    1.8500    0.0000 C   0  0
    6.3750   -0.6167    0.0000 C   0  0
    3.7750   -1.6500    0.0000 C   0  0  1  0  0  0
    2.2542   -1.1375    0.0000 C   0  0
    4.5625   -3.9792    0.0000 C   0  0
    1.1917   -3.2042    0.0000 C   0  0  1  0  0  0
    3.0917   -2.8167    0.0000 O   0  0
    1.2000   -2.4292    0.0000 O   0  0
    6.6250    0.6083    0.0000 C   0  0
    1.8667    3.0458    0.0000 C   0  0
    1.6292    2.3000    0.0000 C   0  0
    6.0500    0.0875    0.0000 C   0  0
    0.5125   -3.6042    0.0000 O   0  0
    5.2375   -3.5792    0.0000 C   0  0  2  0  0  0
    8.4792   -0.7917    0.0000 C   0  0
    4.1917    2.7333    0.0000 C   0  0
    3.6667    2.1583    0.0000 C   0  0
    7.7292   -1.0417    0.0000 C   0  0
    3.0625   -1.1417    0.0000 C   0  0
    2.9542   -0.0917    0.0000 C   0  0
    4.5500   -0.8750    0.0000 C   0  0
    3.7542   -3.2042    0.0000 O   0  0
    2.2792   -0.4875    0.0000 N   0  0
    3.7667   -0.8750    0.0000 N   0  0
    8.0542    0.4750    0.0000 C   0  0
    3.1667    3.6250    0.0000 C   0  0
    2.2750    1.0750    0.0000 C   0  0
    5.7292   -1.5375    0.0000 C   0  0
   -0.2958   -3.5917    0.0000 C   0  0  2  0  0  0
    5.1167    3.3375    0.0000 O   0  0
    9.6542   -1.8292    0.0000 O   0  0
    9.5917   -0.7375    0.0000 O   0  0
    5.7292    2.4250    0.0000 O   0  0
    4.5542   -3.2042    0.0000 C   0  0
    0.5125   -2.8292    0.0000 C   0  0
    4.9417   -1.5375    0.0000 O   0  0
    2.9542    0.6833    0.0000 O   0  0
    3.9417    3.4833    0.0000 C   0  0
    8.6417   -0.0417    0.0000 C   0  0
    2.2667    0.2958    0.0000 O   0  0
    4.9417   -0.1917    0.0000 O   0  0
    8.5417   -1.8917    0.0000 O   0  0
    4.7500    1.8333    0.0000 O   0  0
    4.5542   -4.7625    0.0000 N   0  0
   -0.9708   -3.2167    0.0000 C   0  0
   -0.3000   -2.8292    0.0000 C   0  0
    4.1292   -3.4917    0.0000 O   0  0
    2.1000   -1.5542    0.0000 O   0  0
   -0.3000   -4.3667    0.0000 C   0  0
    5.2292   -4.3625    0.0000 O   0  0
   -0.9833   -4.7500    0.0000 N   0  0
    0.5042   -2.0500    0.0000 N   0  0
    6.4667    1.3708    0.0000 C   0  0
    1.3417    3.6125    0.0000 C   0  0
    5.3042    0.3250    0.0000 C   0  0
    0.8667    2.1458    0.0000 C   0  0
    5.2292   -2.8042    0.0000 C   0  0
    5.2292   -5.1500    0.0000 C   0  0
   -0.9958   -5.5250    0.0000 C   0  0
    0.3792   -4.7625    0.0000 C   0  0
    0.5792    3.4583    0.0000 C   0  0
    5.7167    1.6083    0.0000 C   0  0
    5.1375    1.0833    0.0000 C   0  0
    0.3417    2.7083    0.0000 C   0  0
  2 26  1  0
  3 13  1  0
  4 28  1  0
  5 15  1  0
 14  6  1  0
  5  7  1  0
 11  8  1  0
  9  3  2  0
 10 37  1  0
 11 18  1  1
 12  4  1  0
 13 39  1  0
 14 30  1  0
 15 34  1  0
  8 16  1  0
 17 19  1  1
 18  6  1  0
  5 19  1  6
 20 23  2  0
 21 10  1  0
 22 12  1  0
 23 13  1  0
 17 24  1  0
 25 45  1  0
 26 29  2  0
 27  1  1  0
 28 27  2  0
 29  3  1  0
 30 15  1  0
 31 48  1  0
 32 35  1  0
 33 11  1  0
 34 31  1  0
 14 35  1  1
 36  9  1  0
 37 49  2  0
 38 12  1  0
 39 47  1  0
 40 24  1  0
 41  1  2  0
 42  2  2  0
 43  2  2  0
 44  1  2  0
 45 33  1  0
 46 17  1  0
 47 32  1  0
 48 38  1  0
 49 27  1  0
 50 26  1  0
 51 31  2  0
 52 32  2  0
 53  2  1  0
 54  1  1  0
 55 16  1  0
 56 57  1  0
 57 46  1  0
  8 58  1  6
  7 59  1  6
 40 60  1  1
 25 61  1  6
 62 60  1  0
 63 46  1  0
 64 20  1  0
 65 21  1  0
 66 23  1  0
 67 22  1  0
 68 25  1  0
 69 55  1  0
 70 62  1  0
 71 60  1  0
 72 65  2  0
 73 74  1  0
 74 66  2  0
 75 67  2  0
  4 10  2  0
 22 21  2  0
 75 72  1  0
  7  6  1  0
 56 40  1  0
 25 16  1  0
 20  9  1  0
 73 64  2  0
 36 50  2  0
M  END