
  CDK    9/16/09,9:58

 20 23  0  0  0  0  0  0  0  0999 V2000
   12.0891  -20.8494    0.0000 C   0  0  0  0  0  0  0  0  0  0  0  0
   12.0879  -21.6770    0.0000 C   0  0  0  0  0  0  0  0  0  0  0  0
   12.8008  -22.0899    0.0000 C   0  0  0  0  0  0  0  0  0  0  0  0
   12.7988  -20.4366    0.0000 C   0  0  0  0  0  0  0  0  0  0  0  0
   13.5170  -20.8454    0.0000 C   0  0  0  0  0  0  0  0  0  0  0  0
   13.5176  -21.6724    0.0000 C   0  0  0  0  0  0  0  0  0  0  0  0
   14.3043  -21.9275    0.0000 N   0  0  0  0  0  0  0  0  0  0  0  0
   14.7901  -21.2580    0.0000 C   0  0  0  0  0  0  0  0  0  0  0  0
   14.3034  -20.5894    0.0000 N   0  0  0  0  0  0  0  0  0  0  0  0
   15.6150  -21.2575    0.0000 N   0  0  0  0  0  0  0  0  0  0  0  0
   16.0280  -21.9717    0.0000 C   0  0  0  0  0  0  0  0  0  0  0  0
   15.6156  -22.6828    0.0000 C   0  0  0  0  0  0  0  0  0  0  0  0
   16.0250  -23.3949    0.0000 C   0  0  0  0  0  0  0  0  0  0  0  0
   16.8505  -23.3985    0.0000 C   0  0  0  0  0  0  0  0  0  0  0  0
   16.8534  -21.9656    0.0000 C   0  0  0  0  0  0  0  0  0  0  0  0
   17.2615  -22.6824    0.0000 C   0  0  0  0  0  0  0  0  0  0  0  0
   18.0843  -22.6863    0.0000 C   0  0  0  0  0  0  0  0  0  0  0  0
   18.5001  -21.9744    0.0000 C   0  0  0  0  0  0  0  0  0  0  0  0
   18.0871  -21.2569    0.0000 N   0  0  0  0  0  0  0  0  0  0  0  0
   17.2656  -21.2565    0.0000 C   0  0  0  0  0  0  0  0  0  0  0  0
  4  1  1  0  0  0  0 
  8 10  1  0  0  0  0 
  5  6  1  0  0  0  0 
 10 11  1  0  0  0  0 
 11 12  1  0  0  0  0 
  2  3  1  0  0  0  0 
  3  6  2  0  0  0  0 
 11 15  1  0  0  0  0 
 12 13  1  0  0  0  0 
 13 14  1  0  0  0  0 
 14 16  1  0  0  0  0 
  1  2  2  0  0  0  0 
  5  4  2  0  0  0  0 
 15 16  2  0  0  0  0 
  6  7  1  0  0  0  0 
 16 17  1  0  0  0  0 
  7  8  1  0  0  0  0 
 17 18  2  0  0  0  0 
  8  9  2  0  0  0  0 
 18 19  1  0  0  0  0 
  9  5  1  0  0  0  0 
 19 20  2  0  0  0  0 
 20 15  1  0  0  0  0 
M  END