
  SciTegic06231514502D

 48 53  0  0  0  0            999 V2000
    4.6292   -2.7792    0.0000 C   0  0
    3.9125   -3.1875    0.0000 C   0  0
    5.3458   -3.1875    0.0000 C   0  0  2  0  0  0
    6.0667   -2.7708    0.0000 N   0  3
    3.8875   -8.5917    0.0000 N   0  0
    5.1292   -7.8958    0.0000 C   0  0
    4.3083   -7.8875    0.0000 C   0  0  2  0  0  0
    3.1958   -2.7750    0.0000 C   0  0
    4.6250   -1.9458    0.0000 C   0  0
    6.7792   -6.4750    0.0000 O   0  0
    6.3667   -7.1875    0.0000 C   0  0
    3.9083   -4.0125    0.0000 O   0  0
    5.5417   -7.1833    0.0000 C   0  0
    5.5333   -8.6083    0.0000 C   0  0
    6.7792   -5.6583    0.0000 C   0  0
    3.1958   -1.9500    0.0000 C   0  0
    3.9083   -1.5375    0.0000 C   0  0
    6.7750   -7.9000    0.0000 C   0  0
    6.3625   -8.6125    0.0000 C   0  0
    5.3458   -4.0125    0.0000 C   0  0
    4.2958   -9.3125    0.0000 C   0  0
    6.0625   -1.9375    0.0000 C   0  0
    1.0583   -5.6625    0.0000 C   0  0
    7.4917   -5.2417    0.0000 C   0  0
    6.0667   -5.2500    0.0000 C   0  0
    5.3417   -1.5208    0.0000 C   0  0
    6.0667   -4.4250    0.0000 C   0  0
    5.1208   -9.3208    0.0000 C   0  0
    3.1917   -4.4250    0.0000 C   0  0
    7.4875   -4.4125    0.0000 C   0  0
    2.4833   -3.1875    0.0000 O   0  0
    1.7667   -5.2500    0.0000 C   0  0
    6.7750   -4.0083    0.0000 C   0  0
    2.4875   -1.5375    0.0000 O   0  0
    3.0667   -8.5833    0.0000 C   0  0
    6.7875   -2.3708    0.0000 C   0  0
    6.0625   -3.5917    0.0000 C   0  0
    7.5958   -7.9042    0.0000 O   0  0
    8.2042   -5.6542    0.0000 O   0  0
    3.1958   -5.2417    0.0000 C   0  0
    2.4792   -4.0083    0.0000 C   0  0
    1.7667   -4.4250    0.0000 C   0  0
    2.4917   -5.6542    0.0000 C   0  0
    1.7708   -1.9500    0.0000 C   0  0
    8.0042   -8.6208    0.0000 C   0  0
    3.3315   -8.1018    0.0000 H   0  0
    7.6375   -2.9333    0.0000 Cl  0  5
    6.2120   -3.6873    0.0000 H   0  0
  2  1  2  0
  3  1  1  0
  4  3  1  0
  5  7  1  0
  6  7  1  0
  7 23  1  0
  8  2  1  0
  9  1  1  0
 10 15  1  0
 11 10  1  0
 12  2  1  0
 13 11  2  0
 14  6  2  0
 15 25  1  0
 16  8  2  0
 17  9  2  0
 18 11  1  0
 19 18  2  0
  3 20  1  0
 21  5  1  0
 22  4  1  0
 23 32  1  0
 24 30  1  0
 25 27  2  0
 26  9  1  0
 27 20  1  0
 28 21  1  0
 29 12  1  0
 30 33  2  0
 31  8  1  0
 32 42  2  0
 33 27  1  0
 34 16  1  0
 35  5  1  0
 36  4  1  0
 37  4  1  0
 38 18  1  0
 39 24  1  0
 40 29  1  0
 41 29  2  0
 42 41  1  0
 43 40  2  0
 44 34  1  0
 45 38  1  0
  7 46  1  6
 16 17  1  0
 26 22  1  0
 43 32  1  0
 24 15  2  0
  6 13  1  0
 19 14  1  0
 28 14  1  0
  3 48  1  1
M  CHG  2   4   1  47  -1
M  END