
  SciTegic11201309402D

 68 71  0  0  1  0            999 V2000
    0.3292    2.2208    0.0000 N   0  0
    1.7417    1.4000    0.0000 C   0  0
    2.0667   -1.6875    0.0000 N   0  0
    2.1917    0.7125    0.0000 N   0  0
   -1.9875    1.6000    0.0000 N   0  0
   -0.4958    2.2708    0.0000 C   0  0
    2.3667   -0.9125    0.0000 C   0  0
   -2.5083    0.9500    0.0000 C   0  0
    1.5500   -2.3292    0.0000 C   0  0  1  0  0  0
    1.1042    1.9208    0.0000 C   0  0  2  0  0  0
    2.4125   -0.0875    0.0000 C   0  0  1  0  0  0
   -2.8458   -0.6417    0.0000 N   0  0
   -1.2958    2.0500    0.0000 C   0  0  1  0  0  0
   -2.6333   -1.4375    0.0000 C   0  0
   -2.8083    0.1833    0.0000 C   0  0  2  0  0  0
    3.2292    0.0000    0.0000 C   0  0
    2.1042   -2.9417    0.0000 C   0  0
   -2.1833   -2.1375    0.0000 C   0  0
    0.0542   -2.9917    0.0000 S   0  0
   -0.7458   -3.0000    0.0000 S   0  0
    5.6417   -3.8292    0.0000 C   0  0
    3.9167   -0.4917    0.0000 C   0  0
   -1.5458   -2.6500    0.0000 C   0  0
    2.3625    1.9583    0.0000 O   0  0
   -0.6458    2.8750    0.0000 O   0  0
   -3.2250    1.3708    0.0000 O   0  0
    3.1750   -1.0875    0.0000 O   0  0
    0.8542   -2.7792    0.0000 C   0  0
   -3.6125    0.3583    0.0000 C   0  0
   -1.6333    2.8000    0.0000 C   0  0
   -3.3958   -1.7750    0.0000 O   0  0
    1.8417   -3.7292    0.0000 O   0  0
    6.0542   -3.1125    0.0000 O   0  0
    3.7292   -1.1167    0.0000 O   0  0
    2.9125   -2.7750    0.0000 N   0  0
    4.8250   -3.8292    0.0000 N   0  0
    6.0542   -4.5417    0.0000 C   0  0  2  0  0  0
    1.5167    2.6458    0.0000 C   0  0
    4.7375   -0.4042    0.0000 N   0  0
   -4.3333   -0.0500    0.0000 C   0  0
   -5.7708   -0.8625    0.0000 C   0  0
    6.8792   -4.5417    0.0000 N   0  0
   -1.1458    3.4833    0.0000 C   0  0
   -5.0458    0.3708    0.0000 C   0  0
   -4.3333   -0.8750    0.0000 C   0  0
    3.5792   -5.9667    0.0000 N   0  0
   -5.7583   -0.0292    0.0000 C   0  0
   -5.0500   -1.2792    0.0000 C   0  0
   -6.4792   -1.2750    0.0000 O   0  0
   -2.3125   -2.5542    0.0000 C   0  0
   -1.0708   -3.2750    0.0000 C   0  0
    4.2667   -3.2125    0.0000 C   0  0
    3.4625   -3.3875    0.0000 C   0  0
    4.4042   -5.9667    0.0000 C   0  0
    5.6417   -5.2542    0.0000 C   0  0
    1.1042    3.3583    0.0000 C   0  0
    2.3417    2.6458    0.0000 C   0  0
   -6.4792   -2.1000    0.0000 C   0  0
   -0.3208    3.3958    0.0000 C   0  0
   -1.4833    4.2167    0.0000 C   0  0
    4.8167   -5.2542    0.0000 C   0  0
   -5.7833   -2.5125    0.0000 C   0  0
   -2.7250   -3.2750    0.0000 C   0  0
   -1.4875   -3.9875    0.0000 C   0  0
    0.1625    4.0542    0.0000 C   0  0
   -0.9958    4.9000    0.0000 C   0  0
   -2.3125   -3.9875    0.0000 C   0  0
   -0.1750    4.8125    0.0000 C   0  0
  2 10  1  0
  3  7  1  0
  4  2  1  0
  5 13  1  0
  6  1  1  0
  7 11  1  0
  8  5  1  0
  9  3  1  0
 10  1  1  0
 11  4  1  0
 12 15  1  0
 13  6  1  0
 14 12  1  0
 15  8  1  0
 11 16  1  6
  9 17  1  1
 18 14  1  0
 19 28  1  0
 20 19  1  0
 21 36  1  0
 22 16  1  0
 23 18  1  0
 24  2  2  0
 25  6  2  0
 26  8  2  0
 27  7  2  0
  9 28  1  0
 15 29  1  6
 13 30  1  6
 31 14  2  0
 32 17  2  0
 33 21  2  0
 34 22  2  0
 35 17  1  0
 36 52  1  0
 37 21  1  0
 10 38  1  1
 39 22  1  0
 40 29  1  0
 41 48  1  0
 37 42  1  6
 43 30  1  0
 44 40  2  0
 45 40  1  0
 46 54  1  0
 47 44  1  0
 48 45  2  0
 49 41  1  0
 50 23  1  0
 51 23  1  0
 52 53  1  0
 53 35  1  0
 54 61  1  0
 37 55  1  0
 56 38  1  0
 57 38  1  0
 58 49  1  0
 59 43  1  0
 60 43  2  0
 61 55  1  0
 62 58  1  0
 63 50  1  0
 64 51  1  0
 65 59  2  0
 66 60  1  0
 67 64  1  0
 68 66  2  0
 65 68  1  0
 47 41  2  0
 23 20  1  0
 63 67  1  0
M  END