
  SciTegic12171313022D

 16 18  0  0  0  0            999 V2000
   10.2200   -5.6372    0.0000 C   0  0
   10.2189   -6.4646    0.0000 C   0  0
   10.9337   -6.8774    0.0000 C   0  0
   11.6501   -6.4641    0.0000 C   0  0
   10.9319   -5.2244    0.0000 C   0  0
   11.6436   -5.6353    0.0000 C   0  0
   12.3531   -5.2245    0.0000 C   0  0
   12.3522   -4.4029    0.0000 N   0  0
   11.6358   -3.9939    0.0000 C   0  0
   10.9292   -4.4071    0.0000 N   0  0
   13.0672   -5.6328    0.0000 N   0  0
   13.0662   -6.4587    0.0000 C   0  0
   13.7770   -6.8703    0.0000 C   0  0
   14.4934   -6.4605    0.0000 O   0  0
   14.4945   -5.6345    0.0000 C   0  0
   13.7791   -5.2184    0.0000 C   0  0
  1  2  2  0
  2  3  1  0
  3  4  2  0
  4  6  1  0
  5  1  1  0
  5  6  1  0
  6  7  2  0
  7  8  1  0
  8  9  2  0
  9 10  1  0
 10  5  2  0
 11 12  1  0
 11 16  1  0
 12 13  1  0
 13 14  1  0
 14 15  1  0
 15 16  1  0
  7 11  1  0
M  END