
          11280714522D 1   1.00000     0.00000     0

 33 36  0     0  0            999 V2000
    3.8167   -4.2500    0.0000 C   0  0  0  0  0  0           0  0  0
    2.4875   -4.2500    0.0000 C   0  0  0  0  0  0           0  0  0
    3.1500   -3.7667    0.0000 N   0  0  0  0  0  0           0  0  0
    2.2167   -3.5750    0.0000 C   0  0  3  0  0  0           0  0  0
    2.3667   -2.8875    0.0000 C   0  0  3  0  0  0           0  0  0
    0.9125   -3.6542    0.0000 C   0  0  3  0  0  0           0  0  0
    4.4875   -3.9750    0.0000 C   0  0  0  0  0  0           0  0  0
    1.2500   -4.4417    0.0000 O   0  0  0  0  0  0           0  0  0
    2.7375   -5.0375    0.0000 O   0  0  0  0  0  0           0  0  0
    1.5875   -3.1125    0.0000 C   0  0  3  0  0  0           0  0  0
    3.5625   -5.0375    0.0000 C   0  0  0  0  0  0           0  0  0
    2.8500   -3.3625    0.0000 C   0  0  0  0  0  0           0  0  0
    3.3167   -2.8875    0.0000 C   0  0  0  0  0  0           0  0  0
    5.1375   -4.3792    0.0000 N   0  0  3  0  0  0           0  0  0
    0.9917   -1.4125    0.0000 C   0  0  0  0  0  0           0  0  0
    4.5750   -3.2250    0.0000 O   0  0  0  0  0  0           0  0  0
    0.6375   -3.1167    0.0000 C   0  0  0  0  0  0           0  0  0
    1.1125   -2.6375    0.0000 C   0  0  0  0  0  0           0  0  0
    2.8875   -2.1792    0.0000 C   0  0  0  0  0  0           0  0  0
    0.1917   -1.6250    0.0000 O   0  0  0  0  0  0           0  0  0
    2.3000   -1.5917    0.0000 C   0  0  0  0  0  0           0  0  0
    1.5792   -2.0042    0.0000 C   0  0  0  0  0  0           0  0  0
    1.2042   -0.6125    0.0000 O   0  0  0  0  0  0           0  0  0
    5.9292   -4.1667    0.0000 C   0  0  0  0  0  0           0  0  0
    4.1500   -2.8625    0.0000 C   0  0  0  0  0  0           0  0  0
    5.1292   -5.2042    0.0000 C   0  0  0  0  0  0           0  0  0
    3.2875   -1.4500    0.0000 C   0  0  0  0  0  0           0  0  0
    6.5167   -4.7417    0.0000 C   0  0  0  0  0  0           0  0  0
    7.9000   -5.1042    0.0000 C   0  0  0  0  0  0           0  0  0
    7.3125   -4.5292    0.0000 C   0  0  0  0  0  0           0  0  0
    4.5417   -2.1375    0.0000 C   0  0  0  0  0  0           0  0  0
    8.6917   -4.8917    0.0000 C   0  0  0  0  0  0           0  0  0
    4.1125   -1.4375    0.0000 C   0  0  0  0  0  0           0  0  0
  2  3  2  0     0  0
  3  1  1  0     0  0
  4  2  1  0     0  0
  5  4  1  0     0  0
  6  4  1  0     0  0
  7  1  1  0     0  0
  8  6  1  0     0  0
  9 11  1  0     0  0
 10  5  1  0     0  0
 11  1  2  0     0  0
 12  5  1  0     0  0
 13 12  1  0     0  0
 14  7  1  0     0  0
 15 22  1  0     0  0
 16  7  2  0     0  0
 17  6  1  0     0  0
 18 17  1  0     0  0
 19 13  2  0     0  0
 20 15  2  0     0  0
 21 19  1  0     0  0
 22 21  1  0     0  0
 23 15  1  0     0  0
 24 14  1  0     0  0
 25 13  1  0     0  0
 26 14  1  0     0  0
 27 19  1  0     0  0
 28 24  1  0     0  0
 29 30  1  0     0  0
 30 28  1  0     0  0
 31 25  2  0     0  0
 32 29  1  0     0  0
 33 31  1  0     0  0
  2  9  1  0     0  0
 10  8  1  0     0  0
 10 18  1  0     0  0
 33 27  2  0     0  0
M  END