
          11280714482D 1   1.00000     0.00000     0

 62 69  0     0  0            999 V2000
   11.2000    2.7458    0.0000 C   0  0  0  0  0  0           0  0  0
   10.3667    2.7458    0.0000 C   0  0  0  0  0  0           0  0  0
    9.9542    3.4583    0.0000 C   0  0  0  0  0  0           0  0  0
   10.3667    4.1667    0.0000 C   0  0  0  0  0  0           0  0  0
   11.6125    2.0333    0.0000 C   0  0  0  0  0  0           0  0  0
   11.2000    4.1667    0.0000 C   0  0  0  0  0  0           0  0  0
   11.6125    3.4583    0.0000 O   0  0  0  0  0  0           0  0  0
    9.1375    3.4583    0.0000 C   0  0  0  0  0  0           0  0  0
   11.2000    1.3125    0.0000 C   0  0  0  0  0  0           0  0  0
    8.7292    2.7375    0.0000 C   0  0  0  0  0  0           0  0  0
    9.9542    2.0333    0.0000 C   0  0  0  0  0  0           0  0  0
   12.4417    2.0333    0.0000 C   0  0  0  0  0  0           0  0  0
   11.6125    4.8792    0.0000 C   0  0  0  0  0  0           0  0  0
   10.3667    1.3125    0.0000 C   0  0  0  0  0  0           0  0  0
    7.9042    2.7333    0.0000 C   0  0  0  0  0  0           0  0  0
   11.6125    0.5958    0.0000 C   0  0  0  0  0  0           0  0  0
    8.7250    1.9125    0.0000 C   0  0  0  0  0  0           0  0  0
    1.3250   -1.5792    0.0000 N   0  0  3  0  0  0           0  0  0
    6.6625    3.4458    0.0000 C   0  0  0  0  0  0           0  0  0
    7.4875    3.4583    0.0000 C   0  0  0  0  0  0           0  0  0
   11.2000    5.5917    0.0000 C   0  0  0  0  0  0           0  0  0
    9.9542    4.8792    0.0000 C   0  0  0  0  0  0           0  0  0
    8.7167    4.1667    0.0000 C   0  0  0  0  0  0           0  0  0
    0.5000   -1.5792    0.0000 C   0  0  0  0  0  0           0  0  0
   12.8542    1.3208    0.0000 C   0  0  0  0  0  0           0  0  0
   12.4417    0.5958    0.0000 C   0  0  0  0  0  0           0  0  0
   12.4417    4.8792    0.0000 C   0  0  0  0  0  0           0  0  0
    0.0792   -0.8667    0.0000 N   0  0  0  0  0  0           0  0  0
   10.3667    5.5917    0.0000 C   0  0  0  0  0  0           0  0  0
    1.7500   -2.2917    0.0000 C   0  0  0  0  0  0           0  0  0
    7.9000    4.1667    0.0000 C   0  0  0  0  0  0           0  0  0
   11.6125    6.3167    0.0000 C   0  0  0  0  0  0           0  0  0
    9.4292    1.4958    0.0000 O   0  0  0  0  0  0           0  0  0
    6.2417    4.1542    0.0000 O   0  0  0  0  0  0           0  0  0
    1.7292   -0.8625    0.0000 C   0  0  0  0  0  0           0  0  0
   12.8542   -0.1292    0.0000 O   0  0  0  0  0  0           0  0  0
    6.2500    2.7333    0.0000 N   0  0  0  0  0  0           0  0  0
   12.4417    6.3167    0.0000 C   0  0  0  0  0  0           0  0  0
    1.3375   -3.0167    0.0000 C   0  0  0  0  0  0           0  0  0
    1.7167    0.5708    0.0000 N   0  0  3  0  0  0           0  0  0
    8.0042    1.5083    0.0000 O   0  0  0  0  0  0           0  0  0
   12.8542    5.5917    0.0000 C   0  0  0  0  0  0           0  0  0
    1.3167   -0.1500    0.0000 C   0  0  0  0  0  0           0  0  0
    0.5250   -4.4542    0.0000 C   0  0  0  0  0  0           0  0  0
    1.7542   -3.7375    0.0000 C   0  0  0  0  0  0           0  0  0
    0.5042   -3.0250    0.0000 C   0  0  0  0  0  0           0  0  0
    1.3417   -4.4542    0.0000 C   0  0  0  0  0  0           0  0  0
    0.1042   -3.7417    0.0000 C   0  0  0  0  0  0           0  0  0
   12.8542    7.0417    0.0000 O   0  0  0  0  0  0           0  0  0
    0.1125   -5.1917    0.0000 O   0  0  0  0  0  0           0  0  0
    0.0875   -2.3042    0.0000 C   0  0  0  0  0  0           0  0  0
   -0.7458   -0.8750    0.0000 C   0  0  0  0  0  0           0  0  0
    5.4250    2.7333    0.0000 C   0  0  0  0  0  0           0  0  0
    2.5500    0.5708    0.0000 C   0  0  0  0  0  0           0  0  0
    1.3042    1.2833    0.0000 C   0  0  0  0  0  0           0  0  0
   -0.7208   -5.2042    0.0000 C   0  0  0  0  0  0           0  0  0
    2.9542    1.2875    0.0000 C   0  0  0  0  0  0           0  0  0
    5.0167    2.0208    0.0000 C   0  0  0  0  0  0           0  0  0
    3.7792    1.2958    0.0000 C   0  0  0  0  0  0           0  0  0
    4.1917    2.0083    0.0000 C   0  0  0  0  0  0           0  0  0
   -0.7375   -2.3125    0.0000 C   0  0  0  0  0  0           0  0  0
   -1.1583   -1.5917    0.0000 C   0  0  0  0  0  0           0  0  0
  2  1  1  0     0  0
  3  2  2  0     0  0
  4  6  2  0     0  0
  5  1  2  0     0  0
  6  7  1  0     0  0
  7  1  1  0     0  0
  8  3  1  0     0  0
  9  5  1  0     0  0
 10  8  1  0     0  0
 11  2  1  0     0  0
 12  5  1  0     0  0
 13  6  1  0     0  0
 14  9  1  0     0  0
 15 10  2  0     0  0
 16  9  2  0     0  0
 17 10  1  0     0  0
 18 35  1  0     0  0
 19 20  1  0     0  0
 20 31  2  0     0  0
 21 13  2  0     0  0
 22  4  1  0     0  0
 23  8  2  0     0  0
 24 18  1  0     0  0
 25 12  2  0     0  0
 26 25  1  0     0  0
 27 13  1  0     0  0
 28 24  2  0     0  0
 29 21  1  0     0  0
 30 18  1  0     0  0
 31 23  1  0     0  0
 32 21  1  0     0  0
 33 17  2  0     0  0
 34 19  2  0     0  0
 35 43  1  0     0  0
 36 26  2  0     0  0
 37 19  1  0     0  0
 38 42  1  0     0  0
 39 30  1  0     0  0
 40 54  1  0     0  0
 41 17  1  0     0  0
 42 27  2  0     0  0
 43 40  1  0     0  0
 44 48  2  0     0  0
 45 39  1  0     0  0
 46 39  2  0     0  0
 47 45  2  0     0  0
 48 46  1  0     0  0
 49 38  1  0     0  0
 50 44  1  0     0  0
 51 24  1  0     0  0
 52 28  1  0     0  0
 53 37  1  0     0  0
 54 57  1  0     0  0
 55 40  1  0     0  0
 56 50  1  0     0  0
 57 59  1  0     0  0
 58 53  1  0     0  0
 59 60  1  0     0  0
 60 58  1  0     0  0
 61 51  2  0     0  0
 62 61  1  0     0  0
  3  4  1  0     0  0
 11 14  2  0     0  0
 16 26  1  0     0  0
 29 22  2  0     0  0
 38 32  2  0     0  0
 15 20  1  0     0  0
 44 47  1  0     0  0
 52 62  2  0     0  0
M  END