
  SciTegic01181116592D

 19 20  0  0  0  0            999 V2000
   10.3319  -20.3291    0.0000 C   0  0
   10.3307  -21.1565    0.0000 C   0  0
   11.0456  -21.5694    0.0000 N   0  0
   11.7620  -21.1560    0.0000 C   0  0
   11.7591  -20.3255    0.0000 C   0  0
   11.0438  -19.9164    0.0000 C   0  0
   12.4721  -19.9103    0.0000 C   0  0
   12.4689  -19.0853    0.0000 C   0  0
   13.1819  -18.6701    0.0000 C   0  0
   13.1787  -17.8451    0.0000 O   0  0
   13.8917  -17.4299    0.0000 C   0  0
   13.8886  -16.6049    0.0000 O   0  0
   14.6077  -17.8397    0.0000 N   0  0
   14.6108  -18.6647    0.0000 C   0  0
   13.8962  -19.0748    0.0000 C   0  0
   13.8990  -19.8990    0.0000 C   0  0
   14.6156  -20.3097    0.0000 C   0  0
   15.3308  -19.8901    0.0000 C   0  0
   15.3246  -19.0672    0.0000 C   0  0
  4  5  1  0
  9 10  1  0
  2  3  1  0
 10 11  1  0
  5  6  2  0
 11 12  2  0
  6  1  1  0
 11 13  1  0
  1  2  2  0
 13 14  1  0
  5  7  1  0
 14 15  2  0
  3  4  2  0
 15 16  1  0
  7  8  1  0
 16 17  2  0
 17 18  1  0
  8  9  1  0
 18 19  2  0
 19 14  1  0
M  END