
  SciTegic11201309402D

 66 71  0  0  1  0            999 V2000
    5.3417   -2.0292    0.0000 C   0  0  2  0  0  0
    9.4667   -2.9167    0.0000 N   0  0
    8.6667   -3.1292    0.0000 C   0  0
    5.3375   -1.2042    0.0000 C   0  0  2  0  0  0
    3.8292   -1.4000    0.0000 C   0  0
    4.6167   -0.7917    0.0000 N   0  0
    4.5417   -1.8125    0.0000 O   0  0
    7.2917   -2.3375    0.0000 C   0  0  1  0  0  0
    9.4625   -0.3292    0.0000 C   0  0  2  0  0  0
    6.0917   -0.8667    0.0000 C   0  0  2  0  0  0
    6.7000   -3.6042    0.0000 C   0  0
   10.1042   -3.4292    0.0000 C   0  0
    7.4000   -3.1542    0.0000 C   0  0  2  0  0  0
    9.4542    0.4958    0.0000 C   0  0  1  0  0  0
    8.0375   -1.1667    0.0000 C   0  0  1  0  0  0
    8.0875   -2.5500    0.0000 O   0  0
    8.0500   -2.0000    0.0000 C   0  0  1  0  0  0
    5.9750   -0.0542    0.0000 C   0  0
   10.1667    0.9083    0.0000 C   0  0  1  0  0  0
    6.0000   -3.1667    0.0000 O   0  0
    8.7500   -0.7500    0.0000 O   0  0
    7.2667   -0.8500    0.0000 C   0  0  2  0  0  0
    6.1042   -2.3542    0.0000 C   0  0  2  0  0  0
   10.1792   -0.7417    0.0000 O   0  0
   10.8000   -2.9792    0.0000 O   0  0
   10.1667    1.7333    0.0000 N   0  0
    6.6667    0.3958    0.0000 C   0  0  1  0  0  0
    7.3750   -0.0292    0.0000 C   0  0
    4.5667    0.0333    0.0000 C   0  0
   10.8875    0.4958    0.0000 C   0  0
    9.7625   -2.1417    0.0000 C   0  0  2  0  0  0
    8.4542   -3.9292    0.0000 O   0  0
   11.5917    1.7375    0.0000 C   0  0
    2.9792    2.4083    0.0000 C   0  0
    3.0042   -1.4542    0.0000 O   0  0
   10.8792    2.1458    0.0000 C   0  0
   12.0042    1.0250    0.0000 C   0  0
   12.4167    1.7458    0.0000 C   0  0
    6.7042   -4.4292    0.0000 O   0  0
   10.0667   -4.2542    0.0000 O   0  0
   10.8875   -0.3292    0.0000 C   0  0  1  0  0  0
    5.2250    0.2875    0.0000 O   0  0
    3.6667    2.8708    0.0000 C   0  0
   10.5792   -2.1875    0.0000 C   0  0
    3.0375    1.5833    0.0000 C   0  0
    8.7375    0.9000    0.0000 O   0  0
    4.6292   -2.4375    0.0000 C   0  0
    4.4042    2.5000    0.0000 C   0  0
    7.6792   -0.1292    0.0000 O   0  0
    3.7667    1.2208    0.0000 C   0  0
    3.8250    0.4000    0.0000 C   0  0
    2.2375    2.7708    0.0000 Cl  0  0
    5.3750   -0.4542    0.0000 C   0  0
    3.6125    3.6875    0.0000 Cl  0  0
    8.1500   -3.5042    0.0000 C   0  0
    4.4625    1.6833    0.0000 C   0  0
    8.8417   -2.2125    0.0000 C   0  0
    7.9792   -0.4292    0.0000 C   0  0
    9.4542    2.1458    0.0000 C   0  0
    5.3917   -2.7667    0.0000 C   0  0
    6.6667    1.2208    0.0000 C   0  0
    9.1750   -1.5542    0.0000 C   0  0
   11.6042   -0.7417    0.0000 C   0  0
    7.6750    0.6958    0.0000 C   0  0
    5.3875   -3.5917    0.0000 C   0  0
    5.3870   -0.2054    0.0000 H   0  0
  2  3  1  0
  3 16  1  0
  4  1  1  0
  5  7  1  0
  4  6  1  0
  1  7  1  0
  8 13  1  0
  9 21  1  1
 10  4  1  0
 11 20  1  0
 12  2  1  0
 13 11  1  0
 14  9  1  0
 15 17  1  0
  8 16  1  1
 17  8  1  0
 18 10  1  0
 19 14  1  0
 20 23  1  0
 15 21  1  6
 22 28  1  0
 23  1  1  0
 24  9  1  0
 25 12  1  0
 19 26  1  1
 27 18  1  0
 28 27  1  0
 29  6  1  0
 30 41  1  0
 31  2  1  0
 32  3  2  0
 33 36  1  0
 34 45  2  0
 35  5  2  0
 36 26  1  0
 37 33  1  0
 38 33  1  0
 39 11  2  0
 40 12  2  0
 41 24  1  0
 42 18  2  0
 43 48  2  0
 44 31  1  0
 45 50  1  0
 14 46  1  6
  1 47  1  6
 48 56  1  0
 22 49  1  0
 50 51  1  0
 51 29  1  0
 52 34  1  0
 10 53  1  6
 54 43  1  0
 13 55  1  1
 56 50  2  0
 17 57  1  1
 22 58  1  1
 59 26  1  0
 23 60  1  1
 27 61  1  6
 31 62  1  1
 41 63  1  1
 64 49  1  0
 65 60  1  0
  6  5  1  0
 15 22  1  0
 43 34  1  0
 44 25  1  0
 30 19  1  0
 37 38  1  0
  4 66  1  1
M  END