
  SciTegic12231509382D

 13 13  0  0  1  0            999 V2000
    0.0000   -1.6515    0.0000 O   0  0
    0.0000    0.0000    0.0000 O   0  0
    2.8576   -2.4773    0.0000 O   0  0
    4.2890   -1.6515    0.0000 N   0  0
    2.1470   -1.2411    0.0000 C   0  0
    0.7157   -1.2411    0.0000 C   0  0
    0.7157   -0.4154    0.0000 C   0  0
    1.4313   -1.6515    0.0000 C   0  0
    2.8576   -1.6515    0.0000 C   0  0  2  0  0  0
    2.1470   -0.4154    0.0000 C   0  0
    1.4313    0.0000    0.0000 C   0  0
    3.5733   -1.2411    0.0000 C   0  0
    5.0047   -1.2411    0.0000 C   0  0
  1  6  1  0
  2  7  1  0
  9  3  1  6
  4 12  1  0
  4 13  1  0
  5  8  2  0
  5  9  1  0
  5 10  1  0
  6  7  2  0
  6  8  1  0
  7 11  1  0
  9 12  1  0
 10 11  2  0
M  END