
  SciTegic12231509382D

 38 41  0  0  0  0            999 V2000
   -1.0717    1.0313    0.0000 O   0  0
    1.0717   -1.0313    0.0000 O   0  0
   -3.9296    0.2063    0.0000 O   0  0
    3.9296   -0.2063    0.0000 O   0  0
   -3.9296   -1.4437    0.0000 O   0  0
    3.9296    1.4437    0.0000 O   0  0
   -3.2151    1.4437    0.0000 O   0  0
    3.2151   -1.4438    0.0000 O   0  0
   -0.3572   -0.2062    0.0000 C   0  0
    0.3572    0.2062    0.0000 C   0  0
   -1.7862   -0.2062    0.0000 C   0  0
    1.7862    0.2062    0.0000 C   0  0
   -1.0717    0.2063    0.0000 C   0  0
    1.0717   -0.2063    0.0000 C   0  0
   -1.7862   -1.0312    0.0000 C   0  0
    1.7862    1.0312    0.0000 C   0  0
   -0.3572   -1.0313    0.0000 C   0  0
    0.3572    1.0312    0.0000 C   0  0
   -2.5006    0.2063    0.0000 C   0  0
    2.5006   -0.2063    0.0000 C   0  0
   -2.5006   -1.4437    0.0000 C   0  0
    2.5006    1.4437    0.0000 C   0  0
   -1.0717   -1.4437    0.0000 C   0  0
    1.0717    1.4437    0.0000 C   0  0
   -3.2151   -0.2062    0.0000 C   0  0
    3.2151    0.2062    0.0000 C   0  0
   -3.2151   -1.0312    0.0000 C   0  0
    3.2151    1.0312    0.0000 C   0  0
   -2.5006   -2.2687    0.0000 C   0  0
    2.5006    2.2687    0.0000 C   0  0
   -2.5006    1.0313    0.0000 C   0  0
    2.5006   -1.0313    0.0000 C   0  0
    0.3572   -1.4438    0.0000 C   0  0
   -0.3572    1.4438    0.0000 C   0  0
   -3.2151   -2.6812    0.0000 C   0  0
   -1.7862   -2.6812    0.0000 C   0  0
    3.2151    2.6812    0.0000 C   0  0
    1.7862    2.6812    0.0000 C   0  0
  1 13  1  0
  2 14  1  0
  3 25  1  0
  4 26  1  0
  5 27  1  0
  6 28  1  0
  7 31  2  0
  8 32  2  0
  9 10  1  0
  9 13  1  0
  9 17  2  0
 10 14  1  0
 10 18  2  0
 11 13  2  0
 11 15  1  0
 11 19  1  0
 12 14  2  0
 12 16  1  0
 12 20  1  0
 15 21  1  0
 15 23  2  0
 16 22  1  0
 16 24  2  0
 17 23  1  0
 17 33  1  0
 18 24  1  0
 18 34  1  0
 19 25  2  0
 19 31  1  0
 20 26  2  0
 20 32  1  0
 21 27  2  0
 21 29  1  0
 22 28  2  0
 22 30  1  0
 25 27  1  0
 26 28  1  0
 29 35  1  0
 29 36  1  0
 30 37  1  0
 30 38  1  0
M  END