
  SciTegic11201309402D

 52 54  0  0  0  0            999 V2000
    7.1680   -4.4257    0.0000 C   0  0
    6.4519   -4.8338    0.0000 C   0  0
    6.4473   -5.6534    0.0000 C   0  0
    7.1569   -6.0712    0.0000 S   0  0
    7.8731   -5.6631    0.0000 C   0  0
    7.8795   -4.8374    0.0000 C   0  0
    4.3073   -4.3739    0.0000 C   0  0
    5.0301   -3.9816    0.0000 C   0  0  1  0  0  0
    5.7337   -4.4123    0.0000 C   0  0
    5.7144   -5.2352    0.0000 O   0  0
    4.2839   -5.1968    0.0000 C   0  0
    3.5576   -5.5902    0.0000 C   0  0
    3.5378   -6.4119    0.0000 C   0  0
    4.2422   -6.8437    0.0000 C   0  0
    4.9689   -6.4447    0.0000 C   0  0
    4.9873   -5.6250    0.0000 C   0  0
    4.2205   -7.6667    0.0000 O   0  0
    7.8815   -4.0156    0.0000 C   0  0
    8.5972   -4.4272    0.0000 O   0  0
    8.5972   -2.7783    0.0000 C   0  0  2  0  0  0
    8.5972   -1.9551    0.0000 C   0  0
    9.3086   -3.1900    0.0000 C   0  0
    9.3086   -1.5435    0.0000 O   0  0
   10.0243   -2.7783    0.0000 C   0  0
   10.0243   -1.9551    0.0000 O   0  0
    7.8815   -0.7202    0.0000 C   0  0  1  0  0  0
    8.5972   -0.3044    0.0000 C   0  0
    4.3459   -2.7259    0.0000 C   0  0
    4.3693   -1.8988    0.0000 C   0  0
    3.6230   -3.1181    0.0000 O   0  0
    9.3324   -0.7319    0.0000 C   0  0
    8.5978    0.5412    0.0000 C   0  0
    7.1460   -0.2929    0.0000 C   0  0
    7.1464    0.5568    0.0000 O   0  0
    5.6747   -0.2923    0.0000 C   0  0  1  0  0  0
    4.9388   -0.7190    0.0000 C   0  0
    4.9385   -1.5689    0.0000 S   0  0
    5.6750    0.5574    0.0000 C   0  0
    4.9395    0.9805    0.0000 O   0  0
    6.4394   -6.4783    0.0000 O   0  0
    7.8674   -6.4895    0.0000 O   0  0
    3.4960   -8.0599    0.0000 P   0  0
    2.7932   -7.6291    0.0000 O   0  0
    3.4742   -8.8840    0.0000 O   0  0
    3.3037   -7.2583    0.0000 O   0  0
    5.0494   -3.1568    0.0000 N   0  0
    6.4516   -3.9629    0.0000 N   0  0
    7.8826   -3.1906    0.0000 N   0  0
    7.8812   -1.5452    0.0000 N   0  0
   10.7367   -3.1417    0.0000 N   0  0
    6.4102   -0.6660    0.0000 N   0  0
    6.4108    0.9799    0.0000 N   0  0
 11 12  2  0
 12 13  1  0
 13 14  2  0
 14 15  1  0
 15 16  2  0
 16 11  1  0
 14 17  1  0
  1 18  1  0
 18 19  2  0
 20 21  1  0
 20 22  1  6
 21 23  2  0
 22 24  1  0
 24 25  2  0
 26 27  1  6
 28 29  1  0
 28 30  2  0
 27 31  1  0
 27 32  1  0
 26 33  1  0
 33 34  2  0
 35 36  1  0
 36 37  1  0
 35 38  1  1
 38 39  2  0
 29 37  1  0
  4  5  1  0
  4 40  2  0
  5  6  1  0
  4 41  2  0
 17 42  1  0
  1  2  1  0
 42 43  1  0
  1  6  1  0
 42 44  2  0
  2  3  1  0
 42 45  1  0
  3  4  1  0
  8  7  1  6
  8  9  1  0
  9 10  2  0
  7 11  1  0
 21 49  1  0
 49 26  1  0
 47  1  1  0
  9 47  1  0
 24 50  1  0
 46 28  1  0
  8 46  1  0
 33 51  1  0
 51 35  1  0
 18 48  1  0
 48 20  1  0
 38 52  1  0
M  END