
  SciTegic09291413392D

 28 30  0  0  0  0            999 V2000
   22.2361  -16.2984    0.0000 C   0  0
   22.2349  -17.1179    0.0000 C   0  0
   22.9430  -17.5269    0.0000 C   0  0
   22.9412  -15.8895    0.0000 C   0  0
   23.6498  -16.2948    0.0000 C   0  0
   23.6506  -17.1138    0.0000 C   0  0
   24.3591  -17.5209    0.0000 N   0  0
   25.0674  -17.1100    0.0000 C   0  0
   25.0626  -16.2879    0.0000 C   0  0
   24.3535  -15.8846    0.0000 C   0  0
   24.3487  -15.0724    0.0000 C   0  0
   25.0558  -14.6607    0.0000 C   0  0
   25.0518  -13.8443    0.0000 C   0  0
   24.3414  -13.4386    0.0000 C   0  0
   23.6336  -13.8554    0.0000 C   0  0
   23.6410  -14.6704    0.0000 C   0  0
   25.7679  -15.8750    0.0000 C   0  0  1  0  0  0
   26.4780  -16.2793    0.0000 C   0  0
   26.4843  -17.0971    0.0000 O   0  0
   27.1845  -15.8671    0.0000 O   0  0
   25.7767  -17.5159    0.0000 C   0  0
   21.5283  -15.8900    0.0000 F   0  0
   24.3360  -12.6214    0.0000 Cl  0  0
   25.7629  -15.0578    0.0000 O   0  0
   26.4681  -14.6450    0.0000 C   0  0
   26.4631  -13.8278    0.0000 C   0  0
   27.1783  -15.0492    0.0000 C   0  0
   27.1737  -14.2307    0.0000 C   0  0
  1  2  2  0
  2  3  1  0
  3  6  2  0
  5  4  2  0
  4  1  1  0
  5  6  1  0
  6  7  1  0
  7  8  2  0
  8  9  1  0
  9 10  2  0
 10  5  1  0
 11 12  2  0
 12 13  1  0
 13 14  2  0
 14 15  1  0
 15 16  2  0
 16 11  1  0
 10 11  1  0
  9 17  1  0
 17 18  1  0
 18 19  1  0
 18 20  2  0
  8 21  1  0
  1 22  1  0
 14 23  1  0
 17 24  1  6
 24 25  1  0
 25 26  1  0
 25 27  1  0
 25 28  1  0
M  END