
  Mrv0541 04051115152D          

 21 24  0  0  0  0            999 V2000
    0.3057   -0.6281    0.0000 C   0  0  0  0  0  0  0  0  0  0  0  0
   -0.3617   -1.1130    0.0000 C   0  0  0  0  0  0  0  0  0  0  0  0
   -0.1068   -1.8976    0.0000 N   0  0  0  0  0  0  0  0  0  0  0  0
    0.7182   -1.8976    0.0000 N   0  0  0  0  0  0  0  0  0  0  0  0
    0.9732   -1.1130    0.0000 C   0  0  0  0  0  0  0  0  0  0  0  0
    0.3057    0.1969    0.0000 C   0  0  0  0  0  0  0  0  0  0  0  0
   -1.1463   -0.8581    0.0000 C   0  0  0  0  0  0  0  0  0  0  0  0
   -1.3178   -0.0511    0.0000 N   0  0  0  0  0  0  0  0  0  0  0  0
   -2.1025    0.2039    0.0000 C   0  0  0  0  0  0  0  0  0  0  0  0
   -2.7156   -0.3482    0.0000 C   0  0  0  0  0  0  0  0  0  0  0  0
   -2.5440   -1.1552    0.0000 C   0  0  0  0  0  0  0  0  0  0  0  0
   -1.7594   -1.4101    0.0000 C   0  0  0  0  0  0  0  0  0  0  0  0
    1.0202    0.6094    0.0000 C   0  0  0  0  0  0  0  0  0  0  0  0
    1.0202    1.4344    0.0000 C   0  0  0  0  0  0  0  0  0  0  0  0
    0.3057    1.8469    0.0000 N   0  0  0  0  0  0  0  0  0  0  0  0
   -0.4087    1.4344    0.0000 C   0  0  0  0  0  0  0  0  0  0  0  0
   -0.4087    0.6094    0.0000 C   0  0  0  0  0  0  0  0  0  0  0  0
    1.7347    0.1969    0.0000 C   0  0  0  0  0  0  0  0  0  0  0  0
    2.4492    0.6094    0.0000 C   0  0  0  0  0  0  0  0  0  0  0  0
    2.4492    1.4344    0.0000 C   0  0  0  0  0  0  0  0  0  0  0  0
    1.7347    1.8469    0.0000 C   0  0  0  0  0  0  0  0  0  0  0  0
  1  2  1  0  0  0  0
  1  5  2  0  0  0  0
  1  6  1  0  0  0  0
  2  3  2  0  0  0  0
  7  2  1  0  0  0  0
  3  4  1  0  0  0  0
  5  4  1  0  0  0  0
 13  6  2  0  0  0  0
 17  6  1  0  0  0  0
  7  8  2  0  0  0  0
  7 12  1  0  0  0  0
  9  8  1  0  0  0  0
  9 10  2  0  0  0  0
 10 11  1  0  0  0  0
 11 12  2  0  0  0  0
 13 14  1  0  0  0  0
 13 18  1  0  0  0  0
 14 15  2  0  0  0  0
 14 21  1  0  0  0  0
 16 15  1  0  0  0  0
 16 17  2  0  0  0  0
 18 19  2  0  0  0  0
 19 20  1  0  0  0  0
 20 21  2  0  0  0  0
M  END