
  SciTegic05061409512D

 27 30  0  0  0  0            999 V2000
    3.9332  -23.2941    0.0000 C   0  0
    3.1161  -23.2941    0.0000 C   0  0
    2.7097  -23.9979    0.0000 C   0  0
    3.1161  -24.7062    0.0000 C   0  0
    3.9332  -24.7062    0.0000 C   0  0
    4.3441  -23.9979    0.0000 N   0  0
    1.8941  -23.9931    0.0000 N   0  0
    1.4147  -23.3313    0.0000 C   0  0
    0.6371  -23.5828    0.0000 C   0  0
    0.6360  -24.4000    0.0000 C   0  0
    1.4129  -24.6535    0.0000 C   0  0
    5.1576  -23.9977    0.0000 C   0  0
    5.5666  -24.7064    0.0000 C   0  0
    6.3830  -24.7056    0.0000 C   0  0
    6.7914  -23.9968    0.0000 C   0  0
    6.3774  -23.2873    0.0000 C   0  0
    5.5624  -23.2916    0.0000 C   0  0
    7.6086  -23.9946    0.0000 C   0  0
    8.0153  -23.2858    0.0000 C   0  0
    8.8325  -23.2836    0.0000 N   0  0
    9.4102  -23.8585    0.0000 C   0  0
    9.9865  -23.2791    0.0000 C   0  0
    9.4071  -22.7029    0.0000 C   0  0
   10.5616  -22.6956    0.0000 C   0  0
   10.5616  -23.8554    0.0000 C   0  0
   11.3788  -22.6956    0.0000 O   0  0
   11.3788  -23.8554    0.0000 O   0  0
  1  2  1  0
  1  6  1  0
  2  3  1  0
  3  4  1  0
  4  5  1  0
  5  6  1  0
  7  8  1  0
  8  9  1  0
  9 10  1  0
 10 11  1  0
 11  7  1  0
  3  7  1  0
 12 13  2  0
 13 14  1  0
 14 15  2  0
 15 16  1  0
 16 17  2  0
 17 12  1  0
  6 12  1  0
 15 18  1  0
 18 19  1  0
 19 20  1  0
 20 21  1  0
 21 22  1  0
 22 23  1  0
 23 20  1  0
 22 24  1  0
 22 25  1  0
 24 26  1  0
 25 27  1  0
M  END