
  Mrv0541 04051115152D          

 33 35  0  0  0  0            999 V2000
   -6.4456   -0.0164    0.0000 C   0  0  0  0  0  0  0  0  0  0  0  0
   -5.7312   -0.4289    0.0000 C   0  0  0  0  0  0  0  0  0  0  0  0
   -5.0167   -0.0164    0.0000 C   0  0  1  0  0  0  0  0  0  0  0  0
   -5.4292    0.6981    0.0000 C   0  0  0  0  0  0  0  0  0  0  0  0
   -6.2542    0.6981    0.0000 O   0  0  0  0  0  0  0  0  0  0  0  0
   -5.0167    1.4126    0.0000 O   0  0  0  0  0  0  0  0  0  0  0  0
   -4.6042   -0.7308    0.0000 C   0  0  0  0  0  0  0  0  0  0  0  0
   -4.3022    0.3961    0.0000 O   0  0  0  0  0  0  0  0  0  0  0  0
   -3.5877   -0.0164    0.0000 C   0  0  0  0  0  0  0  0  0  0  0  0
   -2.8733    0.3961    0.0000 C   0  0  0  0  0  0  0  0  0  0  0  0
   -2.1588   -0.0164    0.0000 C   0  0  0  0  0  0  0  0  0  0  0  0
   -3.5877   -0.8414    0.0000 C   0  0  0  0  0  0  0  0  0  0  0  0
   -2.8733   -1.2539    0.0000 C   0  0  0  0  0  0  0  0  0  0  0  0
   -2.1588   -0.8414    0.0000 C   0  0  0  0  0  0  0  0  0  0  0  0
   -1.4443   -1.2539    0.0000 C   0  0  0  0  0  0  0  0  0  0  0  0
   -0.7299   -0.8414    0.0000 C   0  0  0  0  0  0  0  0  0  0  0  0
   -0.0154   -1.2539    0.0000 N   0  0  0  0  0  0  0  0  0  0  0  0
    0.6991   -0.8414    0.0000 C   0  0  0  0  0  0  0  0  0  0  0  0
    1.4135   -1.2539    0.0000 C   0  0  0  0  0  0  0  0  0  0  0  0
    2.1280   -0.8414    0.0000 C   0  0  0  0  0  0  0  0  0  0  0  0
    2.8425   -1.2539    0.0000 C   0  0  0  0  0  0  0  0  0  0  0  0
    3.5570   -0.8414    0.0000 C   0  0  0  0  0  0  0  0  0  0  0  0
    4.2714   -1.2539    0.0000 C   0  0  0  0  0  0  0  0  0  0  0  0
    4.9859   -0.8414    0.0000 C   0  0  0  0  0  0  0  0  0  0  0  0
   -0.0154   -2.0789    0.0000 C   0  0  0  0  0  0  0  0  0  0  0  0
    0.6520   -2.5638    0.0000 O   0  0  0  0  0  0  0  0  0  0  0  0
    0.3971   -3.3484    0.0000 C   0  0  0  0  0  0  0  0  0  0  0  0
    0.8096   -4.0629    0.0000 C   0  0  0  0  0  0  0  0  0  0  0  0
    0.3971   -4.7774    0.0000 C   0  0  0  0  0  0  0  0  0  0  0  0
   -0.4279   -4.7774    0.0000 C   0  0  0  0  0  0  0  0  0  0  0  0
   -0.8404   -4.0629    0.0000 C   0  0  0  0  0  0  0  0  0  0  0  0
   -0.4279   -3.3484    0.0000 C   0  0  0  0  0  0  0  0  0  0  0  0
   -0.6828   -2.5638    0.0000 N   0  0  0  0  0  0  0  0  0  0  0  0
  1  2  1  0  0  0  0
  2  3  1  0  0  0  0
  3  8  1  6  0  0  0
  3  7  1  1  0  0  0
  4  3  1  0  0  0  0
  4  6  2  0  0  0  0
  4  5  1  0  0  0  0
  9  8  1  0  0  0  0
 12  9  2  0  0  0  0
 10  9  1  0  0  0  0
 11 10  2  0  0  0  0
 11 14  1  0  0  0  0
 13 12  1  0  0  0  0
 13 14  2  0  0  0  0
 15 14  1  0  0  0  0
 15 16  1  0  0  0  0
 16 17  1  0  0  0  0
 25 17  1  0  0  0  0
 18 17  1  0  0  0  0
 19 18  1  0  0  0  0
 20 19  1  0  0  0  0
 21 20  1  0  0  0  0
 22 21  1  0  0  0  0
 23 22  1  0  0  0  0
 24 23  1  0  0  0  0
 25 33  2  0  0  0  0
 25 26  1  0  0  0  0
 27 26  1  0  0  0  0
 32 27  2  0  0  0  0
 28 27  1  0  0  0  0
 29 28  2  0  0  0  0
 30 29  1  0  0  0  0
 30 31  2  0  0  0  0
 31 32  1  0  0  0  0
 32 33  1  0  0  0  0
M  END