
          11290714372D 1   1.00000     0.00000     0

 25 26  0     1  0            999 V2000
   10.0755  -10.2810    0.0000 C   0  0  0  0  0  0           0  0  0
   10.0744  -11.1082    0.0000 C   0  0  0  0  0  0           0  0  0
   10.7890  -11.5210    0.0000 C   0  0  0  0  0  0           0  0  0
   11.5053  -11.1077    0.0000 C   0  0  0  0  0  0           0  0  0
   11.5025  -10.2774    0.0000 C   0  0  0  0  0  0           0  0  0
   10.7872   -9.8683    0.0000 C   0  0  0  0  0  0           0  0  0
   10.7843   -9.0398    0.0000 C   0  0  0  0  0  0           0  0  0
   11.4974   -8.6252    0.0000 O   0  0  0  0  0  0           0  0  0
   10.0688   -8.6295    0.0000 O   0  0  0  0  0  0           0  0  0
    9.3611   -9.8688    0.0000 C   0  0  0  0  0  0           0  0  0
    8.6469  -10.2813    0.0000 N   0  0  3  0  0  0           0  0  0
    7.9322   -9.8682    0.0000 C   0  0  0  0  0  0           0  0  0
    7.2202  -10.2773    0.0000 C   0  0  0  0  0  0           0  0  0
    7.2161  -11.1024    0.0000 C   0  0  0  0  0  0           0  0  0
    7.9303  -11.5170    0.0000 N   0  0  3  0  0  0           0  0  0
    8.6487  -11.1061    0.0000 C   0  0  0  0  0  0           0  0  0
    7.9333   -9.0434    0.0000 O   0  0  0  0  0  0           0  0  0
    9.3625  -11.5193    0.0000 O   0  0  0  0  0  0           0  0  0
    7.9277  -12.3417    0.0000 C   0  0  0  0  0  0           0  0  0
    7.2121  -12.7519    0.0000 C   0  0  2  0  0  0           0  0  0
    6.4992  -12.3372    0.0000 N   0  0  0  0  0  0           0  0  0
    7.2106  -13.5778    0.0000 C   0  0  0  0  0  0           0  0  0
    6.4950  -13.9879    0.0000 O   0  0  0  0  0  0           0  0  0
    7.9235  -13.9924    0.0000 O   0  0  0  0  0  0           0  0  0
    6.5074   -9.8624    0.0000 F   0  0  0  0  0  0           0  0  0
  6  1  1  0     0  0
  1  2  2  0     0  0
  3  4  2  0     0  0
 11 16  1  0     0  0
 12 13  1  0     0  0
 13 14  2  0     0  0
 14 15  1  0     0  0
 15 16  1  0     0  0
  7  8  1  0     0  0
 12 17  2  0     0  0
  7  9  2  0     0  0
 16 18  2  0     0  0
  6  7  1  0     0  0
 15 19  1  0     0  0
  4  5  1  0     0  0
 19 20  1  0     0  0
  1 10  1  0     0  0
 20 21  1  1     0  0
  2  3  1  0     0  0
 10 11  1  0     0  0
 11 12  1  0     0  0
 22 23  1  0     0  0
 22 24  2  0     0  0
 20 22  1  0     0  0
  5  6  2  0     0  0
 13 25  1  0     0  0
M  END