
          11280714592D 1   1.00000     0.00000     0

 35 38  0     1  0            999 V2000
    4.9542   -3.7375    0.0000 S   0  0  3  0  0  0           0  0  0
    7.1792   -3.7417    0.0000 S   0  0  3  0  0  0           0  0  0
    5.1167   -3.1542    0.0000 N   0  0  3  0  0  0           0  0  0
    4.1792   -1.8292    0.0000 C   0  0  2  0  0  0           0  0  0
    4.1750   -2.4292    0.0000 C   0  0  0  0  0  0           0  0  0
    4.7000   -1.5292    0.0000 N   0  0  3  0  0  0           0  0  0
    4.6917   -2.7375    0.0000 C   0  0  1  0  0  0           0  0  0
    3.6542   -1.5292    0.0000 C   0  0  0  0  0  0           0  0  0
    4.8042   -4.3167    0.0000 C   0  0  0  0  0  0           0  0  0
    4.3542   -3.7292    0.0000 O   0  0  0  0  0  0           0  0  0
    5.5542   -3.7375    0.0000 O   0  0  0  0  0  0           0  0  0
    5.2167   -2.4375    0.0000 C   0  0  0  0  0  0           0  0  0
    6.5875   -4.1125    0.0000 O   0  0  0  0  0  0           0  0  0
    7.7125   -3.5167    0.0000 O   0  0  0  0  0  0           0  0  0
    6.6917   -3.2750    0.0000 N   0  0  0  0  0  0           0  0  0
    5.2167   -1.8292    0.0000 C   0  0  0  0  0  0           0  0  0
    3.6542   -0.9292    0.0000 C   0  0  0  0  0  0           0  0  0
    4.7000   -0.9292    0.0000 C   0  0  0  0  0  0           0  0  0
    5.6917   -3.0042    0.0000 C   0  0  0  0  0  0           0  0  0
    6.1167   -3.4292    0.0000 C   0  0  0  0  0  0           0  0  0
    4.1792   -0.6250    0.0000 C   0  0  0  0  0  0           0  0  0
    4.2250   -4.4667    0.0000 C   0  0  0  0  0  0           0  0  0
    5.2292   -4.7292    0.0000 C   0  0  0  0  0  0           0  0  0
    7.5542   -4.2417    0.0000 C   0  0  0  0  0  0           0  0  0
    4.5000   -5.4750    0.0000 C   0  0  0  0  0  0           0  0  0
    5.0792   -5.3125    0.0000 C   0  0  0  0  0  0           0  0  0
    4.0750   -5.0500    0.0000 C   0  0  0  0  0  0           0  0  0
    3.1375   -1.8292    0.0000 C   0  0  0  0  0  0           0  0  0
    4.3417   -6.0542    0.0000 O   0  0  0  0  0  0           0  0  0
    3.1375   -0.6292    0.0000 C   0  0  0  0  0  0           0  0  0
    3.7542   -6.2042    0.0000 C   0  0  0  0  0  0           0  0  0
    2.6167   -1.5292    0.0000 C   0  0  0  0  0  0           0  0  0
    2.6167   -0.9292    0.0000 C   0  0  0  0  0  0           0  0  0
    3.6542   -2.1250    0.0000 H   0  0  0  0  0  0           0  0  0
    4.2792   -3.2375    0.0000 H   0  0  0  0  0  0           0  0  0
  2 15  1  0     0  0
  3  1  1  0     0  0
  4  5  1  0     0  0
  5  7  1  0     0  0
  6 16  1  0     0  0
  7  3  1  0     0  0
  8  4  1  0     0  0
  9  1  1  0     0  0
 10  1  2  0     0  0
 11  1  2  0     0  0
 12  7  1  0     0  0
 13  2  2  0     0  0
 14  2  2  0     0  0
 15 20  1  0     0  0
 16 12  1  0     0  0
 17  8  1  0     0  0
 18  6  1  0     0  0
 19  3  1  0     0  0
 20 19  1  0     0  0
 21 18  1  0     0  0
 22  9  2  0     0  0
 23  9  1  0     0  0
 24  2  1  0     0  0
 25 26  1  0     0  0
 26 23  2  0     0  0
 27 22  1  0     0  0
 28  8  2  0     0  0
 29 25  1  0     0  0
 30 17  2  0     0  0
 31 29  1  0     0  0
 32 28  1  0     0  0
 33 32  2  0     0  0
  4 34  1  6     0  0
  7 35  1  6     0  0
 25 27  2  0     0  0
  4  6  1  0     0  0
 21 17  1  0     0  0
 33 30  1  0     0  0
M  END