
  SciTegic06051313552D

 36 39  0  0  0  0            999 V2000
    2.7762  -24.1030    0.0000 C   0  0
    2.7751  -24.9225    0.0000 C   0  0
    3.4831  -25.3315    0.0000 C   0  0
    3.4813  -23.6941    0.0000 C   0  0
    4.9737  -23.8433    0.0000 C   0  0
    4.1899  -24.0994    0.0000 C   0  0
    4.1925  -24.9246    0.0000 C   0  0
    4.9788  -25.1759    0.0000 N   0  0
    5.4595  -24.5051    0.0000 N   0  0
    5.2358  -25.9517    0.0000 C   0  0
    4.8174  -26.6527    0.0000 C   0  0
    4.0026  -26.6382    0.0000 C   0  0
    3.5837  -27.3389    0.0000 C   0  0
    3.9818  -28.0536    0.0000 C   0  0
    4.8032  -28.0631    0.0000 C   0  0
    5.2184  -27.3617    0.0000 C   0  0
    5.2038  -28.7754    0.0000 C   0  0
    4.7873  -29.4784    0.0000 N   0  0
    5.1879  -30.1907    0.0000 C   0  0
    5.3954  -23.1433    0.0000 N   0  0
    6.2124  -23.1585    0.0000 S   0  0
    6.6990  -23.8149    0.0000 C   0  0
    6.1850  -22.3348    0.0000 O   0  0
    6.9938  -22.9153    0.0000 O   0  0
    6.4540  -24.5965    0.0000 C   0  0
    7.1203  -25.0712    0.0000 C   0  0
    7.7770  -24.5830    0.0000 C   0  0
    7.5143  -23.8081    0.0000 S   0  0
    8.5571  -24.8262    0.0000 Cl  0  0
    3.4747  -22.8811    0.0000 O   0  0
    2.7637  -22.4783    0.0000 C   0  0
    4.7713  -30.8938    0.0000 C   0  0  2  0  0  0
    6.0050  -30.1999    0.0000 O   0  0
    3.9542  -30.8846    0.0000 N   0  0
    5.1719  -31.6060    0.0000 C   0  0
    3.5536  -30.1723    0.0000 C   0  0
  1  2  2  0
  2  3  1  0
  3  7  2  0
  6  4  2  0
  4  1  1  0
  6  7  1  0
  5  6  1  0
  7  8  1  0
  8  9  1  0
  9  5  2  0
  8 10  1  0
 10 11  1  0
 11 12  2  0
 12 13  1  0
 13 14  2  0
 14 15  1  0
 15 16  2  0
 16 11  1  0
 15 17  1  0
 17 18  1  0
 18 19  1  0
  5 20  1  0
 20 21  1  0
 21 22  1  0
 21 23  2  0
 21 24  2  0
 25 26  1  0
 22 25  2  0
 26 27  2  0
 27 28  1  0
 28 22  1  0
 27 29  1  0
  4 30  1  0
 30 31  1  0
 19 32  1  0
 19 33  2  0
 32 34  1  0
 32 35  1  1
 34 36  1  0
M  END