
  SciTegic09261414482D

 14 14  0  0  0  0            999 V2000
    5.0833   -3.6484    0.0000 C   0  0
    5.0822   -4.4680    0.0000 C   0  0
    5.7902   -4.8769    0.0000 C   0  0
    6.4999   -4.4675    0.0000 C   0  0
    6.4971   -3.6448    0.0000 C   0  0
    5.7884   -3.2396    0.0000 C   0  0
    7.2082   -4.8750    0.0000 C   0  0
    7.2095   -5.6922    0.0000 O   0  0
    7.9153   -4.4653    0.0000 C   0  0
    8.6237   -4.8728    0.0000 N   0  0
    9.3307   -4.4631    0.0000 C   0  0
   10.0391   -4.8705    0.0000 C   0  0
    9.3294   -3.6459    0.0000 C   0  0
    4.3755   -3.2400    0.0000 Br  0  0
  1  2  2  0
  2  3  1  0
  3  4  2  0
  4  5  1  0
  5  6  2  0
  6  1  1  0
  4  7  1  0
  7  8  1  0
  7  9  1  0
  9 10  1  0
 10 11  1  0
 11 12  1  0
 11 13  1  0
  1 14  1  0
M  END