
          11280715002D 1   1.00000     0.00000     0

 29 29  0     1  0            999 V2000
    4.6917   -7.6000    0.0000 P   0  0  3  0  0  0           0  0  0
    3.3917   -2.8292    0.0000 C   0  0  0  0  0  0           0  0  0
    4.1167   -3.2417    0.0000 N   0  0  0  0  0  0           0  0  0
    2.6792   -3.2417    0.0000 C   0  0  1  0  0  0           0  0  0
    5.5500   -3.2417    0.0000 C   0  0  0  0  0  0           0  0  0
    1.9625   -2.8250    0.0000 N   0  0  0  0  0  0           0  0  0
    4.8292   -2.8292    0.0000 C   0  0  2  0  0  0           0  0  0
    1.3667   -3.4042    0.0000 C   0  0  0  0  0  0           0  0  0
    4.3167   -6.9292    0.0000 O   0  0  0  0  0  0           0  0  0
    5.5500   -0.7542    0.0000 C   0  0  0  0  0  0           0  0  0
    5.5167   -7.4000    0.0000 O   0  0  0  0  0  0           0  0  0
    3.3917   -2.0000    0.0000 O   0  0  0  0  0  0           0  0  0
    2.6792   -4.0667    0.0000 C   0  0  0  0  0  0           0  0  0
    5.5500   -4.0667    0.0000 O   0  0  0  0  0  0           0  0  0
    0.5667   -3.1875    0.0000 O   0  0  0  0  0  0           0  0  0
    6.2667   -0.3417    0.0000 O   0  0  0  0  0  0           0  0  0
    4.8292   -2.0000    0.0000 C   0  0  0  0  0  0           0  0  0
    4.1042   -8.1625    0.0000 O   0  0  0  0  0  0           0  0  0
    4.8792   -8.4292    0.0000 O   0  0  0  0  0  0           0  0  0
    6.2667   -2.8292    0.0000 N   0  0  0  0  0  0           0  0  0
    5.5500   -1.5792    0.0000 C   0  0  0  0  0  0           0  0  0
    3.9042   -6.2167    0.0000 C   0  0  0  0  0  0           0  0  0
    3.0875   -4.7875    0.0000 C   0  0  0  0  0  0           0  0  0
    4.8292   -0.3417    0.0000 O   0  0  0  0  0  0           0  0  0
    3.9042   -4.7875    0.0000 C   0  0  0  0  0  0           0  0  0
    2.6667   -5.5000    0.0000 C   0  0  0  0  0  0           0  0  0
    3.0792   -6.2167    0.0000 C   0  0  0  0  0  0           0  0  0
    4.3167   -5.5000    0.0000 C   0  0  0  0  0  0           0  0  0
    1.5750   -4.2042    0.0000 C   0  0  0  0  0  0           0  0  0
  2  4  1  0     0  0
  3  2  1  0     0  0
  4 13  1  6     0  0
  5  7  1  0     0  0
  6  4  1  0     0  0
  7  3  1  0     0  0
  8  6  1  0     0  0
  9  1  1  0     0  0
 10 21  1  0     0  0
 11  1  2  0     0  0
 12  2  2  0     0  0
 13 23  1  0     0  0
 14  5  2  0     0  0
 15  8  2  0     0  0
 16 10  2  0     0  0
  7 17  1  1     0  0
 18  1  1  0     0  0
 19  1  1  0     0  0
 20  5  1  0     0  0
 21 17  1  0     0  0
 22  9  1  0     0  0
 23 25  1  0     0  0
 24 10  1  0     0  0
 25 28  2  0     0  0
 26 27  1  0     0  0
 27 22  2  0     0  0
 28 22  1  0     0  0
 29  8  1  0     0  0
 23 26  2  0     0  0
M  END