
          11290714382D 1   1.00000     0.00000     0

 63 67  0     1  0            999 V2000
    3.4222  -27.9793    0.0000 C   0  0  0  0  0  0           0  0  0
    4.1465  -28.3743    0.0000 C   0  0  0  0  0  0           0  0  0
    4.8459  -27.9448    0.0000 N   0  0  3  0  0  0           0  0  0
    4.8284  -27.1242    0.0000 C   0  0  0  0  0  0           0  0  0
    4.1041  -26.7291    0.0000 C   0  0  0  0  0  0           0  0  0
    3.3974  -27.1547    0.0000 C   0  0  3  0  0  0           0  0  0
    3.3710  -26.3329    0.0000 C   0  0  0  0  0  0           0  0  0
    2.6898  -27.5788    0.0000 N   0  0  0  0  0  0           0  0  0
    4.0719  -25.8977    0.0000 O   0  0  0  0  0  0           0  0  0
    2.6437  -25.9435    0.0000 N   0  0  0  0  0  0           0  0  0
    5.5702  -28.3398    0.0000 C   0  0  0  0  0  0           0  0  0
    2.6172  -25.1189    0.0000 C   0  0  2  0  0  0           0  0  0
    1.8899  -24.7296    0.0000 C   0  0  0  0  0  0           0  0  0
    3.3181  -24.6837    0.0000 C   0  0  0  0  0  0           0  0  0
    3.2917  -23.8592    0.0000 C   0  0  0  0  0  0           0  0  0
    3.9925  -23.4240    0.0000 N   0  0  0  0  0  0           0  0  0
    2.5643  -23.4698    0.0000 O   0  0  0  0  0  0           0  0  0
    1.8634  -23.9050    0.0000 O   0  0  0  0  0  0           0  0  0
    1.1890  -25.1648    0.0000 N   0  0  0  0  0  0           0  0  0
    0.4617  -24.7754    0.0000 C   0  0  0  0  0  0           0  0  0
   -0.2392  -25.2106    0.0000 C   0  0  0  0  0  0           0  0  0
   -0.9665  -24.8212    0.0000 C   0  0  0  0  0  0           0  0  0
   -1.6674  -25.2564    0.0000 C   0  0  0  0  0  0           0  0  0
   -2.3919  -24.8645    0.0000 C   0  0  0  0  0  0           0  0  0
   -2.3340  -26.5135    0.0000 C   0  0  0  0  0  0           0  0  0
   -1.6366  -26.0767    0.0000 C   0  0  0  0  0  0           0  0  0
   -3.0663  -26.1244    0.0000 C   0  0  0  0  0  0           0  0  0
   -3.0898  -25.3004    0.0000 C   0  0  0  0  0  0           0  0  0
   -3.8141  -24.9105    0.0000 C   0  0  0  0  0  0           0  0  0
   -4.5153  -25.3435    0.0000 C   0  0  0  0  0  0           0  0  0
   -4.4877  -26.1706    0.0000 C   0  0  0  0  0  0           0  0  0
   -3.7630  -26.5568    0.0000 C   0  0  0  0  0  0           0  0  0
    1.9687  -27.1781    0.0000 C   0  0  0  0  0  0           0  0  0
    1.2611  -27.6023    0.0000 C   0  0  2  0  0  0           0  0  0
    1.9551  -26.3532    0.0000 O   0  0  0  0  0  0           0  0  0
    0.5399  -27.2016    0.0000 C   0  0  0  0  0  0           0  0  0
   -0.1677  -27.6258    0.0000 C   0  0  0  0  0  0           0  0  0
   -0.8883  -27.2234    0.0000 C   0  0  0  0  0  0           0  0  0
   -1.5954  -27.6469    0.0000 C   0  0  0  0  0  0           0  0  0
   -1.5823  -28.4726    0.0000 C   0  0  0  0  0  0           0  0  0
   -0.8561  -28.8731    0.0000 C   0  0  0  0  0  0           0  0  0
   -0.1520  -28.4473    0.0000 C   0  0  0  0  0  0           0  0  0
    1.2746  -28.4272    0.0000 C   0  0  0  0  0  0           0  0  0
    1.9957  -28.8279    0.0000 C   0  0  0  0  0  0           0  0  0
    2.0126  -29.6535    0.0000 O   0  0  0  0  0  0           0  0  0
    2.7067  -28.4044    0.0000 O   0  0  0  0  0  0           0  0  0
   -2.2893  -28.8977    0.0000 C   0  0  0  0  0  0           0  0  0
   -3.0110  -28.4980    0.0000 P   0  0  3  0  0  0           0  0  0
   -3.7292  -28.0833    0.0000 O   0  0  0  0  0  0           0  0  0
   -3.4171  -29.2161    0.0000 O   0  0  0  0  0  0           0  0  0
   -2.6010  -27.7821    0.0000 O   0  0  0  0  0  0           0  0  0
    5.5902  -29.1646    0.0000 O   0  0  0  0  0  0           0  0  0
    6.2745  -27.9101    0.0000 O   0  0  0  0  0  0           0  0  0
    6.9987  -28.3052    0.0000 C   0  0  0  0  0  0           0  0  0
    7.7030  -27.8755    0.0000 C   0  0  0  0  0  0           0  0  0
    8.4270  -28.2722    0.0000 C   0  0  0  0  0  0           0  0  0
    9.1308  -27.8432    0.0000 C   0  0  0  0  0  0           0  0  0
    9.1112  -27.0176    0.0000 C   0  0  0  0  0  0           0  0  0
    8.3819  -26.6228    0.0000 C   0  0  0  0  0  0           0  0  0
    7.6811  -27.0541    0.0000 C   0  0  0  0  0  0           0  0  0
    9.8177  -26.5857    0.0000 C   0  0  0  0  0  0           0  0  0
   10.5425  -26.9798    0.0000 O   0  0  0  0  0  0           0  0  0
    9.7966  -25.7610    0.0000 O   0  0  0  0  0  0           0  0  0
 30 31  2  0     0  0
  1  2  1  0     0  0
 31 32  1  0     0  0
 32 27  2  0     0  0
 15 16  1  0     0  0
  8 33  1  0     0  0
  6  8  1  0     0  0
 33 34  1  0     0  0
 15 17  2  0     0  0
 33 35  2  0     0  0
  1  6  1  0     0  0
 34 36  1  0     0  0
 13 18  2  0     0  0
 36 37  1  0     0  0
  7  9  2  0     0  0
 37 38  2  0     0  0
 13 19  1  0     0  0
 38 39  1  0     0  0
  2  3  1  0     0  0
 39 40  2  0     0  0
 19 20  1  0     0  0
 40 41  1  0     0  0
  7 10  1  0     0  0
 41 42  2  0     0  0
 42 37  1  0     0  0
 20 21  1  0     0  0
 34 43  1  1     0  0
  3  4  1  0     0  0
 43 44  1  0     0  0
 21 22  1  0     0  0
  3 11  1  0     0  0
 44 45  1  0     0  0
 44 46  2  0     0  0
 22 23  1  0     0  0
 40 47  1  0     0  0
  4  5  1  0     0  0
 47 48  1  0     0  0
 23 24  2  0     0  0
 48 49  2  0     0  0
 24 28  1  0     0  0
 48 50  1  0     0  0
 10 12  1  0     0  0
 48 51  1  0     0  0
 27 25  1  0     0  0
 11 52  2  0     0  0
  5  6  1  0     0  0
 11 53  1  0     0  0
 25 26  2  0     0  0
 53 54  1  0     0  0
 26 23  1  0     0  0
 54 55  1  0     0  0
 12 13  1  0     0  0
 55 56  2  0     0  0
 56 57  1  0     0  0
 27 28  1  0     0  0
 57 58  2  0     0  0
 12 14  1  6     0  0
 58 59  1  0     0  0
 28 29  2  0     0  0
 59 60  2  0     0  0
 60 55  1  0     0  0
  6  7  1  0     0  0
 29 30  1  0     0  0
 14 15  1  0     0  0
 61 62  1  0     0  0
 61 63  2  0     0  0
 58 61  1  0     0  0
M  END