
  SciTegic09261414532D

 33 36  0  0  0  0            999 V2000
    7.0882  -13.1546    0.0000 C   0  0
    7.0890  -13.9814    0.0000 C   0  0
    7.8043  -14.3923    0.0000 N   0  0
    8.5194  -13.9776    0.0000 C   0  0
    8.5145  -13.1476    0.0000 C   0  0
    7.7986  -12.7404    0.0000 C   0  0
    9.2354  -14.3873    0.0000 C   0  0
    9.2264  -12.7308    0.0000 C   0  0  1  0  0  0
    9.9434  -13.1389    0.0000 C   0  0
   10.6554  -12.7221    0.0000 O   0  0
    9.9485  -13.9638    0.0000 O   0  0
    9.2215  -11.9058    0.0000 O   0  0
    9.9334  -11.4889    0.0000 C   0  0
    9.9284  -10.6639    0.0000 C   0  0
   10.6504  -11.8971    0.0000 C   0  0
   10.6458  -11.0707    0.0000 C   0  0
    7.7943  -11.9154    0.0000 C   0  0
    8.5076  -11.5049    0.0000 C   0  0
    8.5036  -10.6806    0.0000 C   0  0
    7.0793  -11.5147    0.0000 C   0  0
    7.0719  -10.6918    0.0000 C   0  0
    7.7919  -10.2720    0.0000 C   0  0
    7.7883   -9.4432    0.0000 O   0  0
    7.0664   -9.0279    0.0000 C   0  0
    6.3464   -9.4476    0.0000 C   0  0
    6.3483  -10.2827    0.0000 C   0  0
    6.3752  -14.3949    0.0000 C   0  0
    6.3728  -12.7439    0.0000 C   0  0
    5.6637  -13.9821    0.0000 C   0  0
    4.9503  -14.3950    0.0000 C   0  0
    4.9511  -15.2209    0.0000 C   0  0
    5.6712  -15.6321    0.0000 C   0  0
    6.3816  -15.2169    0.0000 C   0  0
  1  2  2  0
  2  3  1  0
  3  4  2  0
  4  5  1  0
  5  6  2  0
  6  1  1  0
  4  7  1  0
  5  8  1  0
  8  9  1  0
  9 10  1  0
  9 11  2  0
  8 12  1  6
 12 13  1  0
 13 14  1  0
 13 15  1  0
 13 16  1  0
  6 17  1  0
 17 18  2  0
 18 19  1  0
 19 22  2  0
 21 20  2  0
 20 17  1  0
 21 22  1  0
 21 26  1  0
 22 23  1  0
 23 24  1  0
 24 25  1  0
 25 26  1  0
  2 27  1  0
  1 28  1  0
 27 29  2  0
 29 30  1  0
 30 31  2  0
 31 32  1  0
 32 33  2  0
 33 27  1  0
M  END