
  SciTegic04151115542D

 23 25  0  0  0  0            999 V2000
    0.9723  -10.4602    0.0000 C   0  0
    1.5463  -11.0529    0.0000 C   0  0
    2.1389  -10.4789    0.0000 C   0  0
    1.5650   -9.8863    0.0000 C   0  0
   -4.1598  -12.7208    0.0000 C   0  0
   -4.1609  -13.5482    0.0000 C   0  0
   -3.4461  -13.9610    0.0000 C   0  0
   -2.7297  -13.5477    0.0000 C   0  0
   -2.7325  -12.7172    0.0000 C   0  0
   -3.4479  -12.3080    0.0000 C   0  0
   -4.8757  -13.9601    0.0000 Cl  0  0
   -2.0196  -12.3020    0.0000 N   0  0
   -1.3036  -12.7118    0.0000 C   0  0
   -0.5907  -12.2966    0.0000 C   0  0
   -1.3005  -13.5368    0.0000 O   0  0
    0.1253  -12.7064    0.0000 N   0  0
   -0.5938  -11.4716    0.0000 O   0  0
    0.8383  -12.2912    0.0000 C   0  0
   -3.4463  -14.7860    0.0000 F   0  0
    1.5502  -12.7019    0.0000 C   0  0
    2.2610  -12.2902    0.0000 C   0  0
    2.2621  -11.4649    0.0000 N   0  0
    0.8292  -11.4662    0.0000 C   0  0
  5  6  2  0
  9 12  1  0
  2  3  1  0
 12 13  1  0
  6  7  1  0
 13 14  1  0
  3  4  1  0
 13 15  2  0
  7  8  2  0
 14 16  1  0
  4  1  1  0
 14 17  2  0
  8  9  1  0
 16 18  1  0
  7 19  1  0
 18 20  1  0
  9 10  2  0
 10  5  1  0
  1  2  1  0
  6 11  1  0
 18 23  1  0
 20 21  1  0
 21 22  1  0
 22  2  1  0
  2 23  1  0
M  END