
  SciTegic12011114592D

 39 43  0  0  0  0            999 V2000
   -5.1004  -21.3788    0.0000 N   0  0
   -4.3852  -20.9691    0.0000 C   0  0
   -4.3824  -20.1432    0.0000 N   0  0
   -5.1006  -19.7288    0.0000 C   0  0
   -5.1011  -18.9038    0.0000 N   0  0
   -4.3865  -18.4908    0.0000 C   0  0
   -3.6722  -21.3840    0.0000 S   0  0
   -2.9563  -20.9740    0.0000 C   0  0
   -2.2474  -21.3920    0.0000 C   0  0
   -1.5321  -20.9827    0.0000 C   0  0
   -1.5288  -20.1568    0.0000 C   0  0
   -2.2469  -19.7420    0.0000 C   0  0
   -2.9593  -20.1538    0.0000 C   0  0
   -0.8135  -19.7458    0.0000 N   0  0
   -3.6008  -18.7389    0.0000 C   0  0
   -3.1217  -18.0672    0.0000 C   0  0
   -3.6125  -17.4041    0.0000 N   0  0
   -4.3948  -17.6658    0.0000 N   0  0
   -2.2968  -18.0600    0.0000 C   0  0
   -6.5878  -19.8897    0.0000 C   0  0
   -7.0734  -20.5508    0.0000 C   0  0
   -6.5953  -21.2126    0.0000 C   0  0
   -5.8103  -20.9604    0.0000 N   0  0
   -5.8097  -20.1428    0.0000 C   0  0
   -0.0999  -20.1598    0.0000 C   0  0
    0.6155  -19.7488    0.0000 C   0  0
    1.3290  -20.1632    0.0000 N   0  0
   -0.1016  -20.9848    0.0000 O   0  0
    1.3204  -20.9836    0.0000 C   0  0
    2.1022  -21.2471    0.0000 C   0  0  1  0  0  0
    2.5944  -20.5849    0.0000 C   0  0
    2.1166  -19.9123    0.0000 C   0  0  1  0  0  0
    2.3780  -19.1298    0.0000 C   0  0
    3.1864  -18.9649    0.0000 O   0  0
    2.3486  -22.0344    0.0000 O   0  0
    3.1537  -22.2147    0.0000 C   0  0
    3.4001  -23.0020    0.0000 C   0  0
    3.7123  -21.6076    0.0000 C   0  0
    3.9458  -22.4250    0.0000 C   0  0
 18  6  2  0
  3  4  2  0
 16 19  1  0
 23 24  1  0
  8  9  2  0
  4 24  1  0
 21 22  2  0
  9 10  1  0
  1  2  2  0
 10 11  2  0
 20 21  1  0
 22 23  1  0
 24 20  2  0
  4  5  1  0
 14 25  1  0
 11 12  1  0
 25 26  1  0
 23  1  1  0
 26 27  1  0
 12 13  2  0
 25 28  2  0
 27 29  1  0
 13  8  1  0
  5  6  1  0
 11 14  1  0
 17 18  1  0
 29 30  1  0
 30 31  1  0
 31 32  1  0
 32 27  1  0
  2  3  1  0
 32 33  1  6
 15 16  2  0
 33 34  1  0
  2  7  1  0
 30 35  1  1
 35 36  1  0
  7  8  1  0
 36 37  1  0
  6 15  1  0
 36 38  1  0
 16 17  1  0
 36 39  1  0
M  END