
  SciTegic06051315212D

 20 23  0  0  0  0            999 V2000
   29.6032  -23.8430    0.0000 N   0  0
   28.8896  -23.4344    0.0000 C   0  0
   30.3167  -23.4303    0.0000 C   0  0
   30.3167  -22.6090    0.0000 C   0  0
   29.6032  -22.2004    0.0000 C   0  0
   28.8896  -22.6090    0.0000 C   0  0
   28.1802  -22.2004    0.0000 C   0  0
   27.4667  -22.6090    0.0000 C   0  0
   27.4667  -23.4344    0.0000 C   0  0
   28.1802  -23.8430    0.0000 C   0  0
   31.0271  -23.8353    0.0000 C   0  0
   31.7349  -23.4247    0.0000 C   0  0
   31.7305  -25.0591    0.0000 C   0  0
   31.0261  -24.6491    0.0000 C   0  0
   29.6032  -21.3832    0.0000 O   0  0
   32.4441  -23.8298    0.0000 C   0  0
   32.4431  -24.6504    0.0000 C   0  0
   33.2232  -24.9050    0.0000 O   0  0
   33.7064  -24.2417    0.0000 C   0  0
   33.2249  -23.5773    0.0000 O   0  0
 10  2  1  0
  2  6  2  0
  2  1  1  0
  1  3  1  0
  3  4  2  0
  4  5  1  0
  5  6  1  0
  6  7  1  0
  7  8  2  0
  8  9  1  0
  9 10  2  0
 11 12  2  0
 12 16  1  0
 17 13  1  0
 13 14  2  0
 14 11  1  0
  3 11  1  0
  5 15  2  0
 16 17  2  0
 17 18  1  0
 18 19  1  0
 19 20  1  0
 20 16  1  0
M  END