
  SciTegic05061116452D

 27 30  0  0  0  0            999 V2000
   -5.0760    1.6958    0.0000 C   0  0
   -5.0772    0.8684    0.0000 C   0  0
   -4.3624    0.4556    0.0000 C   0  0
   -4.3642    2.1084    0.0000 C   0  0
   -3.6489    1.6994    0.0000 C   0  0
   -3.6481    0.8726    0.0000 C   0  0
   -2.9329    0.4617    0.0000 N   0  0
   -2.2179    0.8764    0.0000 C   0  0
   -2.2227    1.7063    0.0000 C   0  0
   -2.9386    2.1135    0.0000 N   0  0
   -1.5019    0.4667    0.0000 O   0  0
   -1.4987   -0.3583    0.0000 C   0  0
   -0.7826   -0.7679    0.0000 C   0  0
   -1.5108    2.1231    0.0000 C   0  0
   -0.7939    1.7150    0.0000 N   0  0
   -0.7929    0.8862    0.0000 C   0  0
   -0.0801    0.4782    0.0000 C   0  0
    0.6342    0.8914    0.0000 N   0  0
    0.6312    1.7174    0.0000 C   0  0
   -0.0862    2.1299    0.0000 C   0  0
   -1.5158    2.9481    0.0000 O   0  0
    1.3496    0.4807    0.0000 C   0  0
    1.3490   -0.3428    0.0000 C   0  0
    2.0635   -0.7534    0.0000 C   0  0
    2.7780   -0.3393    0.0000 C   0  0
    2.7734    0.4899    0.0000 C   0  0
    2.0583    0.8969    0.0000 C   0  0
 12 13  1  0
  3  6  2  0
  9 14  1  0
  6  7  1  0
 14 15  1  0
 15 16  1  0
  1  2  2  0
  7  8  2  0
  5  4  2  0
  8  9  1  0
  4  1  1  0
 15 20  1  0
 16 17  1  0
 17 18  1  0
 18 19  1  0
 19 20  1  0
  9 10  2  0
 14 21  2  0
 10  5  1  0
 18 22  1  0
 22 23  2  0
  8 11  1  0
 23 24  1  0
  2  3  1  0
 24 25  2  0
 11 12  1  0
 25 26  1  0
  5  6  1  0
 26 27  2  0
 27 22  1  0
M  END