
  SciTegic01161211252D

 35 38  0  0  0  0            999 V2000
   24.6931  -14.5450    0.0000 O   0  0
   23.9854  -14.9690    0.0000 S   0  0
   24.7086  -15.3704    0.0000 O   0  0
   24.6528  -12.8877    0.0000 C   0  0
   25.3130  -12.3899    0.0000 C   0  0
   25.0481  -11.6086    0.0000 C   0  0  2  0  0  0
   24.2204  -11.6219    0.0000 N   0  0
   23.9827  -12.4110    0.0000 N   0  0
   23.7930  -10.9136    0.0000 C   0  0
   24.1960  -10.1905    0.0000 C   0  0
   23.7687   -9.4836    0.0000 C   0  0
   22.9427   -9.5028    0.0000 C   0  0
   22.5460  -10.2264    0.0000 C   0  0
   22.9713  -10.9303    0.0000 C   0  0
   25.4849  -10.9117    0.0000 C   0  0
   26.3108  -10.9419    0.0000 C   0  0
   26.7500  -10.2425    0.0000 C   0  0
   26.3647   -9.5164    0.0000 C   0  0
   25.5357   -9.4859    0.0000 C   0  0
   25.1001  -10.1861    0.0000 C   0  0
   24.6599  -13.7079    0.0000 C   0  0
   23.9633  -14.1454    0.0000 N   0  0
   23.2838  -15.4052    0.0000 N   0  0
   22.5181   -8.7961    0.0000 Cl  0  0
   22.5656  -15.0110    0.0000 C   0  0
   21.8658  -15.4435    0.0000 C   0  0
   21.8869  -16.2682    0.0000 C   0  0
   22.6138  -16.6585    0.0000 C   0  0
   23.3197  -16.2283    0.0000 C   0  0
   21.1832  -16.6978    0.0000 C   0  0
   20.4572  -16.3067    0.0000 F   0  0
   21.2053  -17.5227    0.0000 F   0  0
   20.4681  -17.1139    0.0000 F   0  0
   25.3802  -14.1020    0.0000 N   0  0
   26.0816  -13.6753    0.0000 C   0  0
 17 18  2  0
  9 10  2  0
 18 19  1  0
  4  5  1  0
 19 20  2  0
 20 15  1  0
  6 15  1  6
 10 11  1  0
  4 21  1  0
 21 22  2  0
 22  2  1  0
 11 12  2  0
  2 23  1  0
  5  6  1  0
 12 24  1  0
 23 25  1  0
 12 13  1  0
  6  7  1  0
 13 14  2  0
 14  9  1  0
  7  9  1  0
 23 29  1  0
 25 26  1  0
 26 27  1  0
 27 28  1  0
 28 29  1  0
  7  8  1  0
 27 30  1  0
  8  4  2  0
 30 31  1  0
 15 16  2  0
 30 32  1  0
  2  1  2  0
 30 33  1  0
 16 17  1  0
 21 34  1  0
  3  2  2  0
 34 35  1  0
M  END