
  SciTegic04021211102D

 18 20  0  0  0  0            999 V2000
   14.9421  -13.6969    0.0000 N   0  0
   14.9409  -14.5247    0.0000 C   0  0
   15.6563  -14.9379    0.0000 N   0  0
   15.6545  -13.2838    0.0000 C   0  0
   16.3703  -13.6932    0.0000 C   0  0
   16.3706  -14.5202    0.0000 C   0  0
   17.1572  -14.7755    0.0000 N   0  0
   17.6432  -14.1062    0.0000 C   0  0
   17.1568  -13.4375    0.0000 N   0  0
   15.6520  -12.4582    0.0000 N   0  0
   16.3657  -12.0433    0.0000 C   0  0
   17.0798  -12.4563    0.0000 C   0  0
   17.7930  -12.0421    0.0000 C   0  0
   16.3595  -11.2218    0.0000 C   0  0
   14.2257  -14.9370    0.0000 N   0  0
   17.0698  -10.8052    0.0000 C   0  0
   17.7853  -11.2172    0.0000 C   0  0
   15.6416  -10.8142    0.0000 O   0  0
  8  9  2  0
  9  5  1  0
  4  1  1  0
  4 10  1  0
  5  6  1  0
 10 11  1  0
 11 12  2  0
  2  3  1  0
 12 13  1  0
 13 17  2  0
  3  6  2  0
 16 14  2  0
 14 11  1  0
  1  2  2  0
  2 15  1  0
 16 17  1  0
  5  4  2  0
  6  7  1  0
  7  8  1  0
 14 18  1  0
M  END