
          11280715162D 1   1.00000     0.00000     0

 27 29  0     0  0            999 V2000
    0.4917   -2.6542    0.0000 C   0  0  0  0  0  0           0  0  0
   -0.0083   -3.3042    0.0000 N   0  0  3  0  0  0           0  0  0
   -0.7708   -3.0292    0.0000 N   0  0  0  0  0  0           0  0  0
    1.3167   -2.6750    0.0000 N   0  0  0  0  0  0           0  0  0
    0.0292   -1.9750    0.0000 C   0  0  0  0  0  0           0  0  0
    1.7417   -1.9667    0.0000 C   0  0  0  0  0  0           0  0  0
   -0.7458   -2.2042    0.0000 C   0  0  0  0  0  0           0  0  0
    2.5667   -1.9917    0.0000 N   0  0  3  0  0  0           0  0  0
   -1.3958   -1.7000    0.0000 C   0  0  3  0  0  0           0  0  0
    0.2250   -4.0917    0.0000 C   0  0  0  0  0  0           0  0  0
    1.3542   -1.2417    0.0000 O   0  0  0  0  0  0           0  0  0
    2.9667   -2.7167    0.0000 C   0  0  0  0  0  0           0  0  0
    3.7625   -2.5167    0.0000 C   0  0  0  0  0  0           0  0  0
    2.7292   -3.5042    0.0000 C   0  0  0  0  0  0           0  0  0
    4.1042   -3.9042    0.0000 C   0  0  0  0  0  0           0  0  0
    3.3042   -4.1042    0.0000 C   0  0  0  0  0  0           0  0  0
    4.3292   -3.1042    0.0000 C   0  0  0  0  0  0           0  0  0
    4.6792   -4.5000    0.0000 Cl  0  0  0  0  0  0           0  0  0
    3.0042   -1.2917    0.0000 C   0  0  0  0  0  0           0  0  0
   -2.1333   -1.3417    0.0000 C   0  0  0  0  0  0           0  0  0
   -1.2833   -0.8792    0.0000 C   0  0  0  0  0  0           0  0  0
   -2.1458   -2.0042    0.0000 C   0  0  0  0  0  0           0  0  0
    1.0042   -4.2917    0.0000 C   0  0  0  0  0  0           0  0  0
   -0.3375   -4.6917    0.0000 C   0  0  0  0  0  0           0  0  0
   -0.1083   -5.4792    0.0000 C   0  0  0  0  0  0           0  0  0
    1.2417   -5.0792    0.0000 C   0  0  0  0  0  0           0  0  0
    0.6792   -5.6792    0.0000 C   0  0  0  0  0  0           0  0  0
  2  1  1  0     0  0
  3  2  1  0     0  0
  4  1  1  0     0  0
  5  1  2  0     0  0
  6  4  1  0     0  0
  7  5  1  0     0  0
  8  6  1  0     0  0
  9  7  1  0     0  0
 10  2  1  0     0  0
 11  6  2  0     0  0
 12  8  1  0     0  0
 13 12  1  0     0  0
 14 12  2  0     0  0
 15 16  2  0     0  0
 16 14  1  0     0  0
 17 13  2  0     0  0
 18 15  1  0     0  0
 19  8  1  0     0  0
 20  9  1  0     0  0
 21  9  1  0     0  0
 22  9  1  0     0  0
 23 10  1  0     0  0
 24 10  2  0     0  0
 25 24  1  0     0  0
 26 23  2  0     0  0
 27 25  2  0     0  0
  7  3  2  0     0  0
 27 26  1  0     0  0
 17 15  1  0     0  0
M  END