
          08180812482D 1   1.00000     0.00000     0

 19 20  0     0  0            999 V2000
   -2.6723  -22.1333    0.0000 N   0  0  0  0  0  0           0  0  0
   -2.6735  -22.9607    0.0000 C   0  0  0  0  0  0           0  0  0
   -1.9586  -23.3736    0.0000 C   0  0  0  0  0  0           0  0  0
   -1.9604  -21.7206    0.0000 C   0  0  0  0  0  0           0  0  0
   -1.2451  -22.1297    0.0000 C   0  0  0  0  0  0           0  0  0
   -1.2448  -22.9607    0.0000 C   0  0  0  0  0  0           0  0  0
   -0.4888  -21.8003    0.0000 C   0  0  0  0  0  0           0  0  0
    0.1747  -22.2906    0.0000 N   0  3  0  0  0  0           0  0  0
    0.1652  -23.1149    0.0000 C   0  0  0  0  0  0           0  0  0
    0.9477  -23.3762    0.0000 C   0  0  0  0  0  0           0  0  0
    1.4380  -22.7126    0.0000 S   0  0  0  0  0  0           0  0  0
    0.9584  -22.0414    0.0000 C   0  0  0  0  0  0           0  0  0
   -3.3883  -23.3726    0.0000 C   0  0  0  0  0  0           0  0  0
   -1.9629  -20.8956    0.0000 N   0  0  0  0  0  0           0  0  0
   -0.5069  -23.5932    0.0000 C   0  0  0  0  0  0           0  0  0
    1.1963  -24.1628    0.0000 C   0  0  0  0  0  0           0  0  0
    2.0019  -24.3409    0.0000 C   0  0  0  0  0  0           0  0  0
    2.2505  -25.1275    0.0000 O   0  0  0  0  0  0           0  0  0
   -0.4288  -24.4145    0.0000 C   0  0  0  0  0  0           0  0  0
 10 11  1  0     0  0
 11 12  1  0     0  0
 12  8  2  0     0  0
  2  3  1  0     0  0
  3  6  2  0     0  0
  5  7  1  0     0  0
  1  2  2  0     0  0
  7  8  1  0     0  0
  2 13  1  0     0  0
  8  9  1  0     0  0
  4 14  1  0     0  0
  9 15  1  0     0  0
  5  4  2  0     0  0
 10 16  1  0     0  0
  4  1  1  0     0  0
 16 17  1  0     0  0
  5  6  1  0     0  0
 17 18  1  0     0  0
  9 10  2  0     0  0
 15 19  1  0     0  0
M  CHG  1   8   1
M  END