
  CDK    9/16/09,10:2

 31 35  0  0  0  0  0  0  0  0999 V2000
   -5.1431  -14.4083    0.0000 N   0  0  0  0  0  0  0  0  0  0  0  0
   -5.1443  -15.2357    0.0000 C   0  0  0  0  0  0  0  0  0  0  0  0
   -4.4294  -15.6485    0.0000 N   0  0  0  0  0  0  0  0  0  0  0  0
   -4.4312  -13.9955    0.0000 C   0  0  0  0  0  0  0  0  0  0  0  0
   -3.7159  -14.4047    0.0000 C   0  0  0  0  0  0  0  0  0  0  0  0
   -3.7156  -15.2311    0.0000 C   0  0  0  0  0  0  0  0  0  0  0  0
   -2.9295  -15.4863    0.0000 N   0  0  0  0  0  0  0  0  0  0  0  0
   -2.4439  -14.8175    0.0000 C   0  0  0  0  0  0  0  0  0  0  0  0
   -2.9299  -14.1491    0.0000 N   0  0  0  0  0  0  0  0  0  0  0  0
   -4.4337  -13.1705    0.0000 N   0  0  0  0  0  0  0  0  0  0  0  0
   -2.6743  -16.2708    0.0000 C   0  0  0  0  0  0  0  0  0  0  0  0
   -3.1586  -16.9378    0.0000 C   0  0  0  0  0  0  0  0  0  0  0  0
   -2.6735  -17.6051    0.0000 C   0  0  0  0  0  0  0  0  0  0  0  0
   -1.8889  -17.3499    0.0000 C   0  0  0  0  0  0  0  0  0  0  0  0
   -1.8893  -16.5249    0.0000 O   0  0  0  0  0  0  0  0  0  0  0  0
   -1.2213  -17.8346    0.0000 C   0  0  0  0  0  0  0  0  0  0  0  0
   -2.9282  -18.3898    0.0000 O   0  0  0  0  0  0  0  0  0  0  0  0
   -3.9836  -16.9380    0.0000 O   0  0  0  0  0  0  0  0  0  0  0  0
   -1.3072  -18.6551    0.0000 O   0  0  0  0  0  0  0  0  0  0  0  0
   -1.6189  -14.8172    0.0000 N   0  0  0  0  0  0  0  0  0  0  0  0
   -1.2061  -15.5315    0.0000 C   0  0  0  0  0  0  0  0  0  0  0  0
   -0.3811  -15.5312    0.0000 C   0  0  0  0  0  0  0  0  0  0  0  0
    0.0268  -16.2472    0.0000 C   0  0  0  0  0  0  0  0  0  0  0  0
    0.8511  -16.2472    0.0000 C   0  0  0  0  0  0  0  0  0  0  0  0
    0.0241  -14.8189    0.0000 C   0  0  0  0  0  0  0  0  0  0  0  0
    0.8470  -14.8154    0.0000 C   0  0  0  0  0  0  0  0  0  0  0  0
    1.2638  -15.5316    0.0000 C   0  0  0  0  0  0  0  0  0  0  0  0
    2.0906  -15.5277    0.0000 N   0  0  0  0  0  0  0  0  0  0  0  0
    2.5015  -14.8084    0.0000 C   0  0  0  0  0  0  0  0  0  0  0  0
    2.0796  -14.0915    0.0000 C   0  0  0  0  0  0  0  0  0  0  0  0
    1.2542  -14.0989    0.0000 C   0  0  0  0  0  0  0  0  0  0  0  0
 14 15  1  0  0  0  0 
 15 11  1  0  0  0  0 
  5  4  2  0  0  0  0 
 14 16  1  6  0  0  0 
  6  7  1  0  0  0  0 
 13 17  1  1  0  0  0 
  7  8  1  0  0  0  0 
 12 18  1  1  0  0  0 
  8  9  2  0  0  0  0 
 16 19  1  0  0  0  0 
  9  5  1  0  0  0  0 
  8 20  1  0  0  0  0 
  4  1  1  0  0  0  0 
 20 21  1  0  0  0  0 
  4 10  1  0  0  0  0 
 21 22  1  0  0  0  0 
  5  6  1  0  0  0  0 
 22 23  2  0  0  0  0 
 11  7  1  6  0  0  0 
 23 24  1  0  0  0  0 
 24 27  2  0  0  0  0 
 11 12  1  0  0  0  0 
 26 25  2  0  0  0  0 
 25 22  1  0  0  0  0 
  2  3  1  0  0  0  0 
 26 27  1  0  0  0  0 
  3  6  2  0  0  0  0 
 27 28  1  0  0  0  0 
  1  2  2  0  0  0  0 
 28 29  2  0  0  0  0 
 12 13  1  0  0  0  0 
 29 30  1  0  0  0  0 
 13 14  1  0  0  0  0 
 30 31  2  0  0  0  0 
 31 26  1  0  0  0  0 
M  END