
          11280715332D 1   1.00000     0.00000     0

 34 38  0     0  0            999 V2000
    4.1292   -2.4417    0.0000 N   0  0  3  0  0  0           0  0  0
    5.5542   -2.4542    0.0000 C   0  0  3  0  0  0           0  0  0
    4.1250   -1.6250    0.0000 C   0  0  0  0  0  0           0  0  0
    8.6917   -1.4375    0.0000 C   0  0  3  0  0  0           0  0  0
    7.6917   -2.0250    0.0000 N   0  0  3  0  0  0           0  0  0
    9.4042   -1.0167    0.0000 N   0  0  3  0  0  0           0  0  0
    4.8417   -2.8625    0.0000 C   0  0  0  0  0  0           0  0  0
    5.5500   -3.2792    0.0000 C   0  0  0  0  0  0           0  0  0
    8.4917   -2.2292    0.0000 C   0  0  0  0  0  0           0  0  0
    7.9000   -1.2292    0.0000 C   0  0  0  0  0  0           0  0  0
    6.2500   -4.5167    0.0000 C   0  0  0  0  0  0           0  0  0
    6.2542   -3.6917    0.0000 C   0  0  0  0  0  0           0  0  0
    3.4167   -2.8625    0.0000 C   0  0  0  0  0  0           0  0  0
    5.5292   -4.9250    0.0000 C   0  0  0  0  0  0           0  0  0
    5.5542   -1.6250    0.0000 C   0  0  0  0  0  0           0  0  0
    4.8417   -1.2125    0.0000 C   0  0  0  0  0  0           0  0  0
    3.4042   -1.2167    0.0000 O   0  0  0  0  0  0           0  0  0
    6.2667   -2.0375    0.0000 C   0  0  0  0  0  0           0  0  0
    4.8292   -3.6792    0.0000 C   0  0  0  0  0  0           0  0  0
    4.8167   -4.5042    0.0000 C   0  0  0  0  0  0           0  0  0
    6.9792   -2.4417    0.0000 C   0  0  0  0  0  0           0  0  0
   10.9792   -0.5417    0.0000 O   0  0  0  0  0  0           0  0  0
    6.9625   -4.9292    0.0000 Cl  0  0  0  0  0  0           0  0  0
    5.5250   -5.7500    0.0000 Cl  0  0  0  0  0  0           0  0  0
    2.7042   -2.4500    0.0000 C   0  0  0  0  0  0           0  0  0
   10.0042   -1.5875    0.0000 C   0  0  0  0  0  0           0  0  0
    9.5917   -0.2167    0.0000 C   0  0  0  0  0  0           0  0  0
   10.7917   -1.3417    0.0000 C   0  0  0  0  0  0           0  0  0
   10.3792    0.0208    0.0000 C   0  0  0  0  0  0           0  0  0
    1.9875   -2.8625    0.0000 C   0  0  0  0  0  0           0  0  0
    2.7042   -1.6167    0.0000 C   0  0  0  0  0  0           0  0  0
    1.2750   -2.4500    0.0000 C   0  0  0  0  0  0           0  0  0
    1.9875   -1.2042    0.0000 C   0  0  0  0  0  0           0  0  0
    1.2750   -1.6250    0.0000 C   0  0  0  0  0  0           0  0  0
  2  7  1  0     0  0
  3  1  1  0     0  0
  4 10  1  0     0  0
  5 21  1  0     0  0
  6  4  1  0     0  0
  7  1  1  0     0  0
  8  2  1  0     0  0
  9  5  1  0     0  0
 10  5  1  0     0  0
 11 12  2  0     0  0
 12  8  1  0     0  0
 13  1  1  0     0  0
 14 20  2  0     0  0
 15  2  1  0     0  0
 16  3  1  0     0  0
 17  3  2  0     0  0
 18  2  1  0     0  0
 19  8  2  0     0  0
 20 19  1  0     0  0
 21 18  1  0     0  0
 22 29  1  0     0  0
 23 11  1  0     0  0
 24 14  1  0     0  0
 25 13  1  0     0  0
 26  6  1  0     0  0
 27  6  1  0     0  0
 28 26  1  0     0  0
 29 27  1  0     0  0
 30 25  2  0     0  0
 31 25  1  0     0  0
 32 30  1  0     0  0
 33 31  2  0     0  0
 34 33  1  0     0  0
 15 16  1  0     0  0
 34 32  2  0     0  0
  9  4  1  0     0  0
 11 14  1  0     0  0
 28 22  1  0     0  0
M  END