
  SciTegic01161211232D

 44 41  0  0  0  0            999 V2000
    3.6387   -0.8963    0.0000 C   0  0
    2.6003   -1.4977    0.0000 O   0  0
    1.2990   -0.7500    0.0000 C   0  0
    1.2990    0.7500    0.0000 C   0  0
    0.0000    1.5000    0.0000 C   0  0
   -1.2990    0.7500    0.0000 C   0  0
   -1.2990   -0.7500    0.0000 C   0  0
    0.0000   -1.5000    0.0000 C   0  0
   -0.0031   -3.0008    0.0000 C   0  0
   -1.3039   -3.7494    0.0000 N   0  0
   -1.3070   -5.2502    0.0000 C   0  0
   -2.6078   -5.9988    0.0000 C   0  0
   -2.6109   -7.4996    0.0000 C   0  0
   -3.9117   -8.2482    0.0000 C   0  0
   -3.9148   -9.7490    0.0000 C   0  0
   -5.2156  -10.4976    0.0000 C   0  0
   -5.2187  -11.9984    0.0000 N   0  0
   -6.5195  -12.7469    0.0000 C   0  0
   -6.5226  -14.2478    0.0000 C   0  0
   -7.8234  -14.9963    0.0000 C   0  0
   -7.8265  -16.4971    0.0000 C   0  0
   -9.1273  -17.2457    0.0000 C   0  0
   -9.1304  -18.7465    0.0000 N   0  0
  -10.4312  -19.4951    0.0000 C   0  0
  -10.4343  -20.9959    0.0000 C   0  0
  -11.7351  -21.7445    0.0000 C   0  0
  -11.7382  -23.2453    0.0000 C   0  0
  -13.0390  -23.9939    0.0000 C   0  0
  -13.0421  -25.4947    0.0000 C   0  0
  -14.3429  -26.2432    0.0000 N   0  0
  -15.3811  -25.6414    0.0000 N   0  0
  -14.3460  -27.7441    0.0000 C   0  0
  -15.6468  -28.4926    0.0000 C   0  0
  -16.9434  -27.7382    0.0000 C   0  0
  -18.2450  -28.4837    0.0000 C   0  0
  -18.2502  -29.9837    0.0000 C   0  0
  -16.9537  -30.7382    0.0000 C   0  0
  -15.6521  -29.9927    0.0000 C   0  0
  -14.3565  -30.7503    0.0000 O   0  0
  -14.3624  -31.9503    0.0000 C   0  0
   13.8990  -15.3755    0.0000 Cl  0  0
   11.3990  -15.3755    0.0000 Cl  0  0
    8.8990  -15.3755    0.0000 Cl  0  0
    6.3990  -15.3755    0.0000 Cl  0  0
  1  2  1  0
  2  3  1  0
  3  4  2  0
  4  5  1  0
  5  6  2  0
  6  7  1  0
  7  8  2  0
  8  3  1  0
  8  9  1  0
  9 10  1  0
 10 11  1  0
 11 12  1  0
 12 13  1  0
 13 14  1  0
 14 15  1  0
 15 16  1  0
 16 17  1  0
 17 18  1  0
 18 19  1  0
 19 20  1  0
 20 21  1  0
 21 22  1  0
 22 23  1  0
 23 24  1  0
 24 25  1  0
 25 26  1  0
 26 27  1  0
 27 28  1  0
 28 29  1  0
 29 30  1  0
 30 31  1  0
 30 32  1  0
 32 33  1  0
 33 34  2  0
 34 35  1  0
 35 36  2  0
 36 37  1  0
 37 38  2  0
 38 33  1  0
 38 39  1  0
 39 40  1  0
M  END