
  SciTegic12231509382D

 15 15  0  0  0  0            999 V2000
    6.6306  -18.8750    0.0000 C   0  0
    6.6318  -18.0477    0.0000 C   0  0
    5.9169  -17.6348    0.0000 C   0  0
    5.2005  -18.0481    0.0000 C   0  0
    5.2034  -18.8787    0.0000 C   0  0
    5.9187  -19.2878    0.0000 C   0  0
    7.3452  -19.2874    0.0000 C   0  0
    7.3454  -20.1124    0.0000 O   0  0
    8.0595  -18.8747    0.0000 C   0  0
    8.7741  -19.2870    0.0000 N   0  0
    9.4885  -18.8744    0.0000 C   0  0
   10.2031  -19.2867    0.0000 C   0  0
    9.4883  -18.0494    0.0000 C   0  0
   10.2083  -18.4667    0.0000 C   0  0
    7.3466  -17.6357    0.0000 Cl  0  0
  7  8  1  0
  3  4  2  0
  7  9  1  0
  1  2  2  0
  9 10  1  0
  4  5  1  0
 10 11  1  0
 11 12  1  0
  5  6  2  0
 11 13  1  0
  6  1  1  0
 11 14  1  0
  2  3  1  0
  2 15  1  0
  1  7  1  0
M  END