
          11280715452D 1   1.00000     0.00000     0

 15 15  0     0  0            999 V2000
    0.9000    0.0958    0.0000 C   0  0  0  0  0  0           0  0  0
    1.6167    0.5083    0.0000 N   0  0  0  0  0  0           0  0  0
    2.3375    0.0958    0.0000 C   0  0  0  0  0  0           0  0  0
   -1.2458    0.4958    0.0000 C   0  0  0  0  0  0           0  0  0
    0.1875    0.4958    0.0000 N   0  0  0  0  0  0           0  0  0
   -0.5208    0.0833    0.0000 C   0  0  0  0  0  0           0  0  0
    0.9000   -0.7292    0.0000 N   0  0  0  0  0  0           0  0  0
    2.3375   -0.7292    0.0000 N   0  0  0  0  0  0           0  0  0
   -1.9583    0.0833    0.0000 C   0  0  0  0  0  0           0  0  0
    3.0417    0.5083    0.0000 N   0  0  0  0  0  0           0  0  0
   -1.2500    1.3208    0.0000 Cl  0  0  0  0  0  0           0  0  0
   -2.6625    0.4958    0.0000 Cl  0  0  0  0  0  0           0  0  0
   -0.5208   -0.7417    0.0000 C   0  0  0  0  0  0           0  0  0
   -1.2458   -1.1542    0.0000 C   0  0  0  0  0  0           0  0  0
   -1.9583   -0.7417    0.0000 C   0  0  0  0  0  0           0  0  0
  2  1  1  0     0  0
  3  2  1  0     0  0
  4  6  2  0     0  0
  5  1  1  0     0  0
  6  5  1  0     0  0
  7  1  2  0     0  0
  8  3  2  0     0  0
  9  4  1  0     0  0
 10  3  1  0     0  0
 11  4  1  0     0  0
 12  9  1  0     0  0
 13  6  1  0     0  0
 14 13  2  0     0  0
 15 14  1  0     0  0
  9 15  2  0     0  0
M  END