
          11280715492D 1   1.00000     0.00000     0

 24 26  0     0  0            999 V2000
   12.2446  -13.3813    0.0000 C   0  0  0  0  0  0           0  0  0
   12.2434  -14.2063    0.0000 O   0  0  0  0  0  0           0  0  0
   12.9597  -12.9698    0.0000 N   0  0  0  0  0  0           0  0  0
   13.6736  -13.3833    0.0000 C   0  0  0  0  0  0           0  0  0
   13.6694  -14.2063    0.0000 C   0  0  0  0  0  0           0  0  0
   14.3825  -14.6198    0.0000 C   0  0  0  0  0  0           0  0  0
   15.0985  -14.2082    0.0000 C   0  0  0  0  0  0           0  0  0
   15.0971  -13.3790    0.0000 C   0  0  0  0  0  0           0  0  0
   14.3834  -12.9692    0.0000 C   0  0  0  0  0  0           0  0  0
    9.3917  -10.9083    0.0000 C   0  0  3  0  0  0           0  0  0
    9.3917  -11.7333    0.0000 C   0  0  0  0  0  0           0  0  0
   10.1037  -12.1417    0.0000 C   0  0  0  0  0  0           0  0  0
   10.8157  -11.7333    0.0000 N   0  0  3  0  0  0           0  0  0
   10.8157  -10.9083    0.0000 C   0  0  0  0  0  0           0  0  0
   10.1037  -10.4917    0.0000 C   0  0  0  0  0  0           0  0  0
    8.6760  -10.4979    0.0000 C   0  0  0  0  0  0           0  0  0
    7.9627  -10.9125    0.0000 C   0  0  0  0  0  0           0  0  0
    7.2083  -10.5793    0.0000 C   0  0  0  0  0  0           0  0  0
    6.6581  -11.1940    0.0000 N   0  0  0  0  0  0           0  0  0
    7.0727  -11.9073    0.0000 C   0  0  0  0  0  0           0  0  0
    7.8791  -11.7333    0.0000 N   0  0  0  0  0  0           0  0  0
   11.5296  -12.1469    0.0000 C   0  0  0  0  0  0           0  0  0
   11.5284  -12.9719    0.0000 C   0  0  0  0  0  0           0  0  0
   15.8107  -12.9650    0.0000 Cl  0  0  0  0  0  0           0  0  0
  6  7  1  0     0  0
  3  4  1  0     0  0
 10 15  1  0     0  0
 11 12  1  0     0  0
 12 13  1  0     0  0
 13 14  1  0     0  0
 14 15  1  0     0  0
  7  8  2  0     0  0
 10 16  1  0     0  0
 16 17  1  0     0  0
 17 18  2  0     0  0
  8  9  1  0     0  0
  9  4  2  0     0  0
 10 11  1  0     0  0
  4  5  1  0     0  0
 18 19  1  0     0  0
 19 20  1  0     0  0
 20 21  2  0     0  0
 21 17  1  0     0  0
  1  3  1  0     0  0
 13 22  1  0     0  0
  5  6  2  0     0  0
 22 23  1  0     0  0
 23  1  1  0     0  0
  1  2  2  0     0  0
  8 24  1  0     0  0
M  END