
  SciTegic04071410272D

 30 32  0  0  0  0            999 V2000
   -1.7043    1.3336    0.0000 C   0  0  1  0  0  0
   -0.6373    0.5317    0.0000 C   0  0  2  0  0  0
   -1.1535    0.9604    0.0000 C   0  0
   -2.1252    0.9604    0.0000 C   0  0  1  0  0  0
   -2.2649    1.7735    0.0000 N   0  3
   -0.7755    1.3491    0.0000 C   0  0
   -2.6451    0.2481    0.0000 C   0  0
   -2.0248    0.6250    0.0000 C   0  0
   -0.2255   -0.1832    0.0000 C   0  0
    0.5995   -0.1840    0.0000 C   0  0
    0.5987   -1.0090    0.0000 C   0  0
    1.4245   -0.1848    0.0000 C   0  0
    0.6003    0.6410    0.0000 O   0  0
    1.8377    0.5293    0.0000 C   0  0
    2.6627    0.5285    0.0000 C   0  0
    3.0745   -0.1864    0.0000 C   0  0
    2.6613   -0.9005    0.0000 C   0  0
    1.8363   -0.8997    0.0000 C   0  0
    1.3127   -1.4222    0.0000 C   0  0
    1.3119   -2.2472    0.0000 C   0  0
    0.5970   -2.6590    0.0000 C   0  0
   -0.1170   -2.2458    0.0000 C   0  0
   -0.1162   -1.4208    0.0000 C   0  0
   -1.8942    2.1364    0.0000 H   0  0
   -2.7280    1.5237    0.0000 H   0  0
   -3.0293    2.0839    0.0000 C   0  0
   -2.1748    2.5936    0.0000 C   0  0
    3.0731   -1.6154    0.0000 F   0  0
    2.0260   -2.6604    0.0000 F   0  0
    5.1959    0.0000    0.0000 I   0  5
  4  5  1  0
 12 14  2  0
  1  5  1  0
 14 15  1  0
  1  6  1  0
 15 16  2  0
  6  2  1  0
 16 17  1  0
  4  7  1  0
 17 18  2  0
 18 12  1  0
  1  8  1  0
 11 19  2  0
  7  8  1  0
 19 20  1  0
 20 21  2  0
  2  9  1  6
 21 22  1  0
 22 23  2  0
 23 11  1  0
  9 10  1  0
  1 24  1  6
  4 25  1  1
 10 11  1  0
  5 26  1  0
  2  3  1  0
  5 27  1  0
 10 12  1  0
 17 28  1  0
  3  4  1  0
 20 29  1  0
 10 13  1  0
M  CHG  2   5   1  30  -1
M  END