
  SciTegic04021211102D

 25 28  0  0  0  0            999 V2000
   -5.1465  -21.7297    0.0000 C   0  0
   -4.7391  -22.4431    0.0000 C   0  0
   -3.9193  -22.4459    0.0000 C   0  0
   -3.5061  -21.7360    0.0000 C   0  0
   -3.9187  -21.0218    0.0000 C   0  0
   -4.7371  -21.0226    0.0000 C   0  0
   -2.6800  -21.7362    0.0000 C   0  0
   -2.2682  -22.4548    0.0000 C   0  0
   -1.4418  -22.4565    0.0000 C   0  0
   -1.0262  -21.7403    0.0000 C   0  0
   -2.2681  -21.0227    0.0000 C   0  0
   -1.4443  -21.0216    0.0000 C   0  0
   -1.0351  -20.3089    0.0000 C   0  0
   -1.4486  -19.5966    0.0000 N   0  0
   -2.2755  -19.6016    0.0000 N   0  0
   -2.6810  -20.3151    0.0000 C   0  0
   -0.2079  -20.3069    0.0000 N   0  0
    0.2038  -19.5895    0.0000 C   0  0
    1.0312  -19.5894    0.0000 C   0  0
    1.4430  -18.8728    0.0000 C   0  0
    1.0276  -18.1566    0.0000 C   0  0
    0.1961  -18.1613    0.0000 C   0  0
   -0.2119  -18.8783    0.0000 C   0  0
    1.4385  -17.4387    0.0000 C   0  0
   -5.9737  -21.7273    0.0000 O   0  0
 11 12  2  0
  6  1  1  0
 12 13  1  0
  1  2  2  0
 13 14  2  0
  3  4  2  0
 14 15  1  0
  7  8  2  0
 15 16  2  0
 16 11  1  0
 13 17  1  0
  8  9  1  0
 17 18  1  0
  4  5  1  0
 18 19  2  0
  9 10  2  0
 19 20  1  0
 10 12  1  0
 20 21  2  0
 11  7  1  0
 21 22  1  0
  4  7  1  0
 22 23  2  0
 23 18  1  0
  2  3  1  0
 21 24  1  0
  5  6  2  0
  1 25  1  0
M  END