
  SciTegic06051313522D

 35 40  0  0  0  0            999 V2000
   30.9322  -25.0564    0.0000 C   0  0
   30.9310  -25.8759    0.0000 C   0  0
   31.6391  -26.2849    0.0000 C   0  0
   31.6373  -24.6475    0.0000 C   0  0
   32.3459  -25.0528    0.0000 C   0  0
   32.3466  -25.8718    0.0000 C   0  0
   33.0552  -26.2788    0.0000 C   0  0
   33.7634  -25.8680    0.0000 C   0  0
   33.7587  -25.0459    0.0000 C   0  0
   33.0496  -24.6425    0.0000 C   0  0
   31.8511  -23.8513    0.0000 C   0  0
   32.8321  -23.8471    0.0000 C   0  0
   33.1314  -22.9128    0.0000 C   0  0
   32.3352  -22.3395    0.0000 C   0  0
   31.5441  -22.9196    0.0000 N   0  0
   32.3310  -21.3584    0.0000 O   0  0
   34.0631  -22.6058    0.0000 N   0  0
   34.7949  -23.2592    0.0000 C   0  0
   35.7266  -22.9521    0.0000 C   0  0
   36.4584  -23.6055    0.0000 C   0  0
   37.3902  -23.2984    0.0000 C   0  0
   38.1192  -23.9564    0.0000 C   0  0
   39.0502  -23.6500    0.0000 C   0  0
   39.2509  -22.6886    0.0000 C   0  0
   38.5132  -22.0342    0.0000 C   0  0
   37.5851  -22.3441    0.0000 C   0  0
   33.0569  -27.0960    0.0000 S   0  0
   33.7654  -27.5032    0.0000 C   0  0
   33.7638  -28.3180    0.0000 C   0  0
   34.4715  -28.7250    0.0000 C   0  0
   35.1794  -28.3149    0.0000 C   0  0
   35.1750  -27.4935    0.0000 C   0  0
   34.4667  -27.0902    0.0000 C   0  0
   35.8884  -28.7211    0.0000 O   0  0
   35.8912  -29.5383    0.0000 O   0  0
  1  2  2  0
  2  3  1  0
  3  6  2  0
  5  4  2  0
  4  1  1  0
  5  6  1  0
  6  7  1  0
  7  8  2  0
  8  9  1  0
  9 10  2  0
 10  5  1  0
  4 11  1  0
 10 12  1  0
 11 12  1  0
 12 13  2  0
 13 14  1  0
 14 15  1  0
 15 11  2  0
 14 16  2  0
 13 17  1  0
 17 18  1  0
 18 19  1  0
 19 20  1  0
 20 21  1  0
 21 22  2  0
 22 23  1  0
 23 24  2  0
 24 25  1  0
 25 26  2  0
 26 21  1  0
  7 27  1  0
 27 28  1  0
 28 29  2  0
 29 30  1  0
 30 31  2  0
 31 32  1  0
 32 33  2  0
 33 28  1  0
 31 34  1  0
 34 35  1  0
M  END