
  SciTegic06051315212D

 22 24  0  0  0  0            999 V2000
    4.7655  -13.6341    0.0000 C   0  0
    4.7643  -14.4614    0.0000 C   0  0
    5.4791  -14.8744    0.0000 C   0  0
    6.1955  -14.4612    0.0000 C   0  0
    6.1928  -13.6304    0.0000 C   0  0
    5.4773  -13.2212    0.0000 C   0  0
    6.8763  -14.9258    0.0000 C   0  0
    6.8971  -15.7509    0.0000 C   0  0
    7.6892  -15.9851    0.0000 N   0  0
    8.1557  -15.3032    0.0000 O   0  0
    7.6503  -14.6498    0.0000 C   0  0
    7.8822  -13.8581    0.0000 C   0  0
    6.2425  -16.2530    0.0000 C   0  0
    4.0495  -14.8733    0.0000 O   0  0
    5.4749  -12.3962    0.0000 C   0  0  1  0  0  0
    6.1882  -11.9815    0.0000 O   0  0
    4.7592  -11.9858    0.0000 C   0  0
    4.7601  -11.1615    0.0000 C   0  0
    4.0452  -10.7512    0.0000 C   0  0
    3.3309  -11.1659    0.0000 C   0  0
    3.3360  -11.9952    0.0000 C   0  0
    4.0516  -12.4017    0.0000 C   0  0
  1  2  2  0
  2  3  1  0
  3  4  2  0
  4  5  1  0
  5  6  2  0
  6  1  1  0
  8  9  2  0
  7  8  1  0
  9 10  1  0
 10 11  1  0
 11  7  2  0
  4  7  1  0
 11 12  1  0
  8 13  1  0
  2 14  1  0
 15  6  1  0
 15 16  1  6
 15 17  1  0
 17 18  2  0
 18 19  1  0
 19 20  2  0
 20 21  1  0
 21 22  2  0
 22 17  1  0
M  END