
  SciTegic04151115542D

 24 26  0  0  0  0            999 V2000
   10.7820  -18.9787    0.0000 C   0  0
   11.2512  -18.2999    0.0000 N   0  0
   10.7479  -17.6430    0.0000 C   0  0
    9.9911  -18.7441    0.0000 C   0  0  1  0  0  0
    9.9678  -17.9219    0.0000 C   0  0  2  0  0  0
    9.1786  -17.6899    0.0000 C   0  0
    8.7141  -18.3688    0.0000 C   0  0
    9.2163  -19.0202    0.0000 C   0  0
    4.9944  -20.0000    0.0000 C   0  0
    4.9932  -20.8273    0.0000 C   0  0
    5.7081  -21.2402    0.0000 C   0  0
    6.4245  -20.8269    0.0000 C   0  0
    6.4216  -19.9963    0.0000 C   0  0
    5.7063  -19.5872    0.0000 C   0  0
    5.7079  -22.0652    0.0000 F   0  0
    4.2785  -21.2393    0.0000 Cl  0  0
    7.1346  -19.5811    0.0000 N   0  0
    7.8506  -19.9909    0.0000 C   0  0
    8.5635  -19.5758    0.0000 C   0  0
    7.8537  -20.8159    0.0000 O   0  0
    9.2795  -19.9856    0.0000 N   0  0
    8.5604  -18.7508    0.0000 O   0  0
    9.9924  -19.5704    0.0000 C   0  0
    9.9301  -17.0977    0.0000 H   0  0
 11 12  2  0
  2  3  1  0
 12 13  1  0
  3  5  1  0
 13 14  2  0
 14  9  1  0
  5  6  1  0
 11 15  1  0
  6  7  1  0
 10 16  1  0
  7  8  1  0
 13 17  1  0
  8  4  1  0
 17 18  1  0
  4  5  1  0
 18 19  1  0
  4  1  1  0
 18 20  2  0
  9 10  2  0
 19 21  1  0
 19 22  2  0
 10 11  1  0
 21 23  1  0
  4 23  1  1
  1  2  1  0
  5 24  1  1
M  END