
  SciTegic11201309402D

 25 27  0  0  0  0            999 V2000
    6.7712  -12.0867    0.0000 C   0  0  2  0  0  0
    6.3816  -11.3319    0.0000 C   0  0  1  0  0  0
    5.5916  -11.1839    0.0000 C   0  0  1  0  0  0
    6.4138  -12.8389    0.0000 C   0  0
    5.6135  -13.0151    0.0000 C   0  0  2  0  0  0
    4.9462  -12.4737    0.0000 C   0  0
    4.9546  -11.6855    0.0000 C   0  0
    5.3751  -11.9732    0.0000 N   0  0
    6.8689  -10.6711    0.0000 C   0  0
    7.6938  -10.6477    0.0000 O   0  0
    7.5962  -12.0730    0.0000 C   0  0
    8.0167  -12.7796    0.0000 C   0  0
    8.8410  -12.7663    0.0000 C   0  0
    9.2426  -12.0444    0.0000 C   0  0
    8.8137  -11.3344    0.0000 C   0  0
    7.9908  -11.3512    0.0000 C   0  0
   10.0675  -12.0297    0.0000 Cl  0  0
    4.5502  -11.9556    0.0000 C   0  0
    4.1531  -11.2322    0.0000 C   0  0
    3.3280  -11.2146    0.0000 C   0  0
    2.9309  -10.4915    0.0000 I   0  0
    6.4866   -9.9398    0.0000 O   0  0
    8.0859   -9.9216    0.0000 C   0  0
    5.8439  -12.0420    0.0000 H   0  0
    5.8302  -12.1550    0.0000 H   0  0
 11 12  2  0
  6  7  1  0
 12 13  1  0
  7  3  1  0
 13 14  2  0
  4  5  1  0
 14 15  1  0
 15 16  2  0
 16 11  1  0
  3  8  1  0
 14 17  1  0
  5  8  1  0
  8 18  1  0
  1  2  1  0
 18 19  1  0
  2  9  1  1
 19 20  2  0
  2  3  1  0
 20 21  1  0
  9 10  1  0
  9 22  2  0
  1  4  1  0
 10 23  1  0
  1 11  1  1
  5  6  1  0
  5 24  1  1
  3 25  1  1
M  ISO  1  21 125
M  END