
  SciTegic04191613082D

 47 50  0  0  0  0            999 V2000
    1.2990   -0.7500    0.0000 C   0  0
    1.2990    0.7500    0.0000 C   0  0
    0.0000    1.5000    0.0000 C   0  0
   -1.2990    0.7500    0.0000 C   0  0
   -1.2990   -0.7500    0.0000 C   0  0
    0.0000   -1.5000    0.0000 N   0  3
   -2.5988   -1.5004    0.0000 C   0  0
   -3.8985   -2.2508    0.0000 C   0  0
   -5.1983   -3.0013    0.0000 C   0  0
    2.5988   -1.5004    0.0000 C   0  0
    3.8985   -2.2508    0.0000 C   0  0
    5.1983   -3.0012    0.0000 C   0  0
    0.0000   -2.7000    0.0000 C   0  0
    5.1983   -4.5012    0.0000 C   0  0
    6.4973   -5.2512    0.0000 C   0  0
    7.7964   -4.5012    0.0000 C   0  0
    7.7964   -3.0012    0.0000 C   0  0
    6.4973   -2.2512    0.0000 C   0  0
   -5.1983   -4.5013    0.0000 C   0  0
   -6.4973   -5.2513    0.0000 C   0  0
   -7.7964   -4.5013    0.0000 C   0  0
   -7.7964   -3.0013    0.0000 C   0  0
   -6.4973   -2.2513    0.0000 C   0  0
   -9.0960   -5.2516    0.0000 C   0  0
   -9.0985   -6.7517    0.0000 C   0  0
  -10.3987   -7.4996    0.0000 C   0  0
  -11.6966   -6.7476    0.0000 C   0  0
  -11.6942   -5.2476    0.0000 C   0  0
  -10.3940   -4.4996    0.0000 C   0  0
    9.0961   -5.2516    0.0000 C   0  0
    9.0986   -6.7517    0.0000 C   0  0
   10.3988   -7.4996    0.0000 C   0  0
   11.6966   -6.7475    0.0000 C   0  0
   11.6942   -5.2475    0.0000 C   0  0
   10.3940   -4.4996    0.0000 C   0  0
   12.9913   -4.4924    0.0000 O   0  0
   12.9876   -3.2924    0.0000 C   0  0
  -10.4042   -9.0005    0.0000 O   0  0
  -11.4453   -9.5973    0.0000 C   0  0
   16.7913   -3.7485    0.0000 C   0  0
   18.0912   -4.4985    0.0000 S   0  0
   15.7518   -4.3481    0.0000 F   0  0
   16.7913   -2.5485    0.0000 F   0  0
   15.7521   -3.1483    0.0000 F   0  0
   18.0912   -5.6985    0.0000 O   0  5
   19.1307   -3.8988    0.0000 O   0  0
   19.1304   -5.0986    0.0000 O   0  0
  1  2  2  0
  2  3  1  0
  3  4  2  0
  4  5  1  0
  5  6  2  0
  6  1  1  0
  5  7  1  0
  7  8  3  0
  8  9  1  0
  1 10  1  0
 10 11  3  0
 11 12  1  0
  6 13  1  0
 12 14  2  0
 14 15  1  0
 15 16  2  0
 16 17  1  0
 17 18  2  0
 18 12  1  0
  9 19  2  0
 19 20  1  0
 20 21  2  0
 21 22  1  0
 22 23  2  0
 23  9  1  0
 24 25  2  0
 25 26  1  0
 26 27  2  0
 27 28  1  0
 28 29  2  0
 29 24  1  0
 21 24  1  0
 30 31  2  0
 31 32  1  0
 32 33  2  0
 33 34  1  0
 34 35  2  0
 35 30  1  0
 16 30  1  0
 36 37  1  0
 34 36  1  0
 38 39  1  0
 26 38  1  0
 40 41  1  0
 40 42  1  0
 40 43  1  0
 40 44  1  0
 41 45  1  0
 41 46  2  0
 41 47  2  0
M  CHG  2   6   1  45  -1
M  END