
  SciTegic06271217572D

 22 23  0  0  0  0            999 V2000
    3.5858   -7.2509    0.0000 O   0  0
    3.1772   -6.5379    0.0000 S   0  0
    2.7640   -7.2483    0.0000 O   0  0
    3.8924   -6.1318    0.0000 C   0  0
    4.6058   -6.5451    0.0000 C   0  0
    5.3211   -6.1327    0.0000 C   0  0
    5.3230   -5.3071    0.0000 C   0  0
    4.6096   -4.8939    0.0000 C   0  0
    3.8943   -5.3062    0.0000 C   0  0
    6.0360   -4.8983    0.0000 C   0  0
    6.0379   -4.0728    0.0000 O   0  0
    6.7494   -5.3116    0.0000 C   0  0
    7.4647   -4.8992    0.0000 S   0  0
    8.1781   -5.3124    0.0000 C   0  0
    8.1762   -6.1381    0.0000 N   0  0
    8.8895   -6.5513    0.0000 C   0  0
    9.6047   -6.1389    0.0000 C   0  0
    9.6066   -5.3133    0.0000 C   0  0
    8.8933   -4.9001    0.0000 N   0  0
   10.3198   -4.9047    0.0000 O   0  0
    8.8897   -7.3733    0.0000 C   0  0
    2.4656   -6.1256    0.0000 N   0  0
  2  1  2  0
  3  2  2  0
  4  5  1  0
  5  6  2  0
  6  7  1  0
  7  8  2  0
  8  9  1  0
  4  9  2  0
  4  2  1  0
 10 11  2  0
 10 12  1  0
 14 15  2  0
 15 16  1  0
 16 17  2  0
 17 18  1  0
 18 19  1  0
 14 19  1  0
 18 20  2  0
 16 21  1  0
 13 14  1  0
 12 13  1  0
  7 10  1  0
  2 22  1  0
M  END