
          11280715522D 1   1.00000     0.00000     0

 50 53  0     1  0            999 V2000
   -4.9264  -11.4666    0.0000 C   0  0  0  0  0  0           0  0  0
   -4.9276  -12.2940    0.0000 C   0  0  0  0  0  0           0  0  0
   -4.2128  -12.7069    0.0000 C   0  0  0  0  0  0           0  0  0
   -4.2146  -11.0539    0.0000 C   0  0  0  0  0  0           0  0  0
   -3.4992  -11.4630    0.0000 C   0  0  0  0  0  0           0  0  0
   -3.4984  -12.2898    0.0000 C   0  0  0  0  0  0           0  0  0
   -2.7831  -12.7008    0.0000 N   0  0  0  0  0  0           0  0  0
   -2.0681  -12.2860    0.0000 C   0  0  0  0  0  0           0  0  0
   -2.0729  -11.4561    0.0000 C   0  0  0  0  0  0           0  0  0
   -2.7888  -11.0488    0.0000 C   0  0  0  0  0  0           0  0  0
   -4.2109  -13.5319    0.0000 O   0  0  0  0  0  0           0  0  0
   -3.4954  -13.9427    0.0000 C   0  0  0  0  0  0           0  0  0
   -3.4935  -14.7677    0.0000 C   0  0  0  0  0  0           0  0  0
   -4.2096  -15.1775    0.0000 C   0  0  0  0  0  0           0  0  0
   -4.2081  -16.0017    0.0000 C   0  0  0  0  0  0           0  0  0
   -3.4921  -16.4134    0.0000 C   0  0  0  0  0  0           0  0  0
   -2.7762  -15.9948    0.0000 C   0  0  0  0  0  0           0  0  0
   -2.7813  -15.1719    0.0000 C   0  0  0  0  0  0           0  0  0
   -4.9237  -14.7643    0.0000 Cl  0  0  0  0  0  0           0  0  0
   -2.0696  -14.7546    0.0000 Cl  0  0  0  0  0  0           0  0  0
   -1.3520  -12.6958    0.0000 C   0  0  0  0  0  0           0  0  0
   -2.0594  -16.4031    0.0000 S   0  0  3  0  0  0           0  0  0
   -1.3500  -16.8125    0.0000 N   0  0  0  0  0  0           0  0  0
   -1.6802  -15.7499    0.0000 O   0  0  0  0  0  0           0  0  0
   -2.4645  -17.1218    0.0000 O   0  0  0  0  0  0           0  0  0
   -0.5731  -16.3999    0.0000 C   0  0  3  0  0  0           0  0  0
    0.0750  -15.9792    0.0000 C   0  0  0  0  0  0           0  0  0
   -0.2816  -17.0495    0.0000 C   0  0  0  0  0  0           0  0  0
   -0.8653  -15.7506    0.0000 C   0  0  0  0  0  0           0  0  0
    0.0660  -15.1542    0.0000 O   0  0  0  0  0  0           0  0  0
    0.7939  -16.3838    0.0000 N   0  0  3  0  0  0           0  0  0
    0.7985  -17.2092    0.0000 C   0  0  0  0  0  0           0  0  0
    1.5134  -17.6138    0.0000 C   0  0  0  0  0  0           0  0  0
    2.2257  -17.1970    0.0000 N   0  0  3  0  0  0           0  0  0
    2.2187  -16.3711    0.0000 C   0  0  0  0  0  0           0  0  0
    1.4992  -15.9620    0.0000 C   0  0  0  0  0  0           0  0  0
    2.9431  -17.6044    0.0000 C   0  0  0  0  0  0           0  0  0
    3.6546  -17.1868    0.0000 O   0  0  0  0  0  0           0  0  0
    2.9491  -18.4294    0.0000 C   0  0  2  0  0  0           0  0  0
    3.6665  -18.8367    0.0000 C   0  0  0  0  0  0           0  0  0
    2.2376  -18.8470    0.0000 N   0  0  0  0  0  0           0  0  0
    4.3780  -18.4191    0.0000 C   0  0  0  0  0  0           0  0  0
    5.0954  -18.8265    0.0000 C   0  0  0  0  0  0           0  0  0
    5.8069  -18.4089    0.0000 C   0  0  0  0  0  0           0  0  0
    6.5243  -18.8162    0.0000 N   0  0  3  0  0  0           0  0  0
    7.2358  -18.3986    0.0000 C   0  0  0  0  0  0           0  0  0
    6.5302  -19.6412    0.0000 C   0  0  0  0  0  0           0  0  0
    2.2435  -19.6720    0.0000 C   0  0  0  0  0  0           0  0  0
    1.5320  -20.0896    0.0000 C   0  0  0  0  0  0           0  0  0
    2.9609  -20.0793    0.0000 O   0  0  0  0  0  0           0  0  0
 22 24  2  0     0  0
  2  3  1  0     0  0
 22 25  2  0     0  0
 11 12  1  0     0  0
 23 26  1  0     0  0
  5  6  1  0     0  0
 26 27  1  0     0  0
 12 13  1  0     0  0
 26 28  1  0     0  0
  3  6  2  0     0  0
 26 29  1  0     0  0
 13 14  2  0     0  0
 27 30  2  0     0  0
  6  7  1  0     0  0
 27 31  1  0     0  0
 31 32  1  0     0  0
 14 15  1  0     0  0
  1  2  2  0     0  0
 15 16  2  0     0  0
  7  8  2  0     0  0
 16 17  1  0     0  0
 31 36  1  0     0  0
 32 33  1  0     0  0
 33 34  1  0     0  0
 34 35  1  0     0  0
 35 36  1  0     0  0
  5  4  2  0     0  0
 34 37  1  0     0  0
 17 18  2  0     0  0
 37 38  2  0     0  0
 18 13  1  0     0  0
 37 39  1  0     0  0
  8  9  1  0     0  0
 39 40  1  0     0  0
 14 19  1  0     0  0
 39 41  1  6     0  0
  4  1  1  0     0  0
 40 42  1  0     0  0
 18 20  1  0     0  0
 42 43  1  0     0  0
  9 10  2  0     0  0
 43 44  1  0     0  0
  8 21  1  0     0  0
 44 45  1  0     0  0
 10  5  1  0     0  0
 45 46  1  0     0  0
 17 22  1  0     0  0
 45 47  1  0     0  0
 41 48  1  0     0  0
 22 23  1  0     0  0
 48 49  1  0     0  0
  3 11  1  0     0  0
 48 50  2  0     0  0
M  END