
          11280715112D 1   1.00000     0.00000     0

 30 32  0     1  0            999 V2000
    1.6792   -2.6167    0.0000 C   0  0  0  0  0  0           0  0  0
    8.1125   -1.3792    0.0000 C   0  0  0  0  0  0           0  0  0
    7.4000   -1.7917    0.0000 C   0  0  2  0  0  0           0  0  0
    2.4000   -3.0292    0.0000 C   0  0  0  0  0  0           0  0  0
    0.9667   -3.0292    0.0000 C   0  0  0  0  0  0           0  0  0
    1.6792   -1.7917    0.0000 C   0  0  0  0  0  0           0  0  0
    8.1125   -0.5542    0.0000 O   0  0  0  0  0  0           0  0  0
    6.6792   -1.3792    0.0000 C   0  0  0  0  0  0           0  0  0
    5.9667   -1.7917    0.0000 C   0  0  0  0  0  0           0  0  0
    8.8250   -1.7917    0.0000 O   0  0  0  0  0  0           0  0  0
    4.5417   -2.6167    0.0000 C   0  0  0  0  0  0           0  0  0
    3.1125   -2.6167    0.0000 C   0  0  0  0  0  0           0  0  0
    7.4000   -2.6167    0.0000 O   0  0  0  0  0  0           0  0  0
    5.9667   -2.6250    0.0000 C   0  0  0  0  0  0           0  0  0
    5.2500   -1.3792    0.0000 C   0  0  0  0  0  0           0  0  0
    5.2542   -3.0292    0.0000 C   0  0  0  0  0  0           0  0  0
    4.5375   -1.8000    0.0000 C   0  0  0  0  0  0           0  0  0
    3.8292   -3.0292    0.0000 O   0  0  0  0  0  0           0  0  0
    0.2542   -2.6167    0.0000 C   0  0  0  0  0  0           0  0  0
    0.9750   -3.8542    0.0000 C   0  0  0  0  0  0           0  0  0
    2.4000   -1.3792    0.0000 C   0  0  0  0  0  0           0  0  0
    0.9667   -1.3792    0.0000 C   0  0  0  0  0  0           0  0  0
    8.1125   -3.0292    0.0000 C   0  0  0  0  0  0           0  0  0
    8.1167   -3.8542    0.0000 C   0  0  0  0  0  0           0  0  0
    2.4000   -0.5542    0.0000 C   0  0  0  0  0  0           0  0  0
   -0.4583   -3.0292    0.0000 C   0  0  0  0  0  0           0  0  0
    0.2625   -4.2667    0.0000 C   0  0  0  0  0  0           0  0  0
    0.9667   -0.5542    0.0000 C   0  0  0  0  0  0           0  0  0
    1.6792   -0.1417    0.0000 C   0  0  0  0  0  0           0  0  0
   -0.4583   -3.8542    0.0000 C   0  0  0  0  0  0           0  0  0
  2  3  1  0     0  0
  3  8  1  0     0  0
  4  1  2  0     0  0
  5  1  1  0     0  0
  6  1  1  0     0  0
  7  2  2  0     0  0
  8  9  1  0     0  0
  9 15  1  0     0  0
 10  2  1  0     0  0
 11 18  1  0     0  0
 12  4  1  0     0  0
  3 13  1  1     0  0
 14 16  1  0     0  0
 15 17  2  0     0  0
 16 11  2  0     0  0
 17 11  1  0     0  0
 18 12  1  0     0  0
 19  5  2  0     0  0
 20  5  1  0     0  0
 21  6  2  0     0  0
 22  6  1  0     0  0
 23 13  1  0     0  0
 24 23  1  0     0  0
 25 21  1  0     0  0
 26 19  1  0     0  0
 27 20  2  0     0  0
 28 22  2  0     0  0
 29 28  1  0     0  0
 30 27  1  0     0  0
 25 29  2  0     0  0
 26 30  2  0     0  0
 14  9  2  0     0  0
M  END