
  SciTegic12231509382D

 37 41  0  0  0  0            999 V2000
    5.0103   -4.9298    0.0000 C   0  0
    4.7195   -5.7022    0.0000 C   0  0
    3.8952   -5.6636    0.0000 N   0  0
    3.6788   -4.8640    0.0000 C   0  0
    4.3709   -4.4184    0.0000 N   0  0
    2.9080   -4.5727    0.0000 O   0  0
    4.4119   -3.5962    0.0000 C   0  0
    3.6973   -3.1843    0.0000 C   0  0
    2.9824   -3.5962    0.0000 C   0  0
    2.2677   -3.1843    0.0000 N   0  0
    2.2704   -2.3623    0.0000 C   0  0
    1.5597   -1.9484    0.0000 C   0  0
    0.8450   -2.3510    0.0000 N   0  0
    0.8384   -3.1766    0.0000 C   0  0
    1.5519   -3.5976    0.0000 C   0  0
    0.1303   -1.9391    0.0000 C   0  0
    0.1446   -1.1200    0.0000 C   0  0
   -0.5675   -0.7017    0.0000 C   0  0
   -1.2827   -1.1073    0.0000 C   0  0
   -1.2859   -1.9367    0.0000 C   0  0
   -0.5755   -2.3489    0.0000 C   0  0
    3.6973   -2.3607    0.0000 O   0  0
    5.4550   -4.2368    0.0000 C   0  0
    6.2888   -4.2786    0.0000 C   0  0
    6.7361   -3.5790    0.0000 C   0  0
    6.3558   -2.8393    0.0000 C   0  0
    5.5169   -2.8015    0.0000 C   0  0
    5.0751   -3.5023    0.0000 C   0  0
    5.7470   -5.3026    0.0000 C   0  0
    5.7911   -6.1259    0.0000 C   0  0
    6.5302   -6.4960    0.0000 C   0  0
    7.2199   -6.0445    0.0000 C   0  0
    7.1713   -5.2127    0.0000 C   0  0
    6.4316   -4.8483    0.0000 C   0  0
    5.1716   -6.3917    0.0000 O   0  0
    0.8551   -0.7081    0.0000 O   0  0
    1.5739   -1.1224    0.0000 C   0  0
  2  3  1  0
 18 19  2  0
  8  9  1  0
 19 20  1  0
  3  4  1  0
 20 21  2  0
 21 16  1  0
  9 10  1  0
  8 22  1  0
 10 11  1  0
  1 23  1  0
  4  5  1  0
 23 24  2  0
  5  1  1  0
 24 25  1  0
  1  2  1  0
 25 26  2  0
  4  6  2  0
 26 27  1  0
 27 28  2  0
 28 23  1  0
 10 15  1  0
  1 29  1  0
 11 12  1  0
 29 30  2  0
 12 13  1  0
 30 31  1  0
 13 14  1  0
 31 32  2  0
 14 15  1  0
 32 33  1  0
  5  7  1  0
 33 34  2  0
 34 29  1  0
 13 16  1  0
  2 35  2  0
 17 36  1  0
 16 17  2  0
 36 37  1  0
  7  8  1  0
 17 18  1  0
M  END