
  SciTegic09261414532D

 46 53  0  0  0  0            999 V2000
   12.4587  -19.3030    0.0000 C   0  0
   12.4575  -20.1225    0.0000 C   0  0
   13.1656  -20.5315    0.0000 C   0  0
   13.1638  -18.8941    0.0000 C   0  0
   13.8724  -19.2994    0.0000 C   0  0
   13.8727  -20.1226    0.0000 C   0  0
   14.6556  -20.3768    0.0000 N   0  0
   15.1394  -19.7106    0.0000 C   0  0
   14.6552  -19.0449    0.0000 N   0  0
   14.9084  -21.1539    0.0000 C   0  0
   15.9533  -19.7089    0.0000 C   0  0
   16.3615  -20.4181    0.0000 C   0  0
   17.1780  -20.4182    0.0000 C   0  0
   17.5871  -19.7098    0.0000 C   0  0
   17.1739  -18.9999    0.0000 C   0  0
   16.3588  -19.0033    0.0000 C   0  0
   18.4043  -19.7084    0.0000 O   0  0
   18.8141  -20.4154    0.0000 C   0  0
   19.6313  -20.4141    0.0000 C   0  0
   20.0411  -21.1211    0.0000 N   0  0
   19.7099  -21.8631    0.0000 C   0  0
   20.3176  -22.4096    0.0000 N   0  0
   20.8533  -21.2008    0.0000 C   0  0
   21.0209  -21.9971    0.0000 C   0  0
   21.7928  -22.2485    0.0000 C   0  0
   22.3978  -21.7048    0.0000 C   0  0
   22.2258  -20.9063    0.0000 C   0  0
   21.4541  -20.6585    0.0000 C   0  0
   19.0036  -22.2703    0.0000 C   0  0
   18.2969  -21.8576    0.0000 C   0  0
   17.5884  -22.2632    0.0000 C   0  0
   17.5852  -23.0812    0.0000 C   0  0
   18.2965  -23.4920    0.0000 C   0  0
   19.0022  -23.0841    0.0000 C   0  0
   14.3617  -21.7613    0.0000 C   0  0
   13.5642  -21.5903    0.0000 C   0  0
   13.0178  -22.1969    0.0000 C   0  0
   13.2704  -22.9750    0.0000 C   0  0
   14.0744  -23.1430    0.0000 N   0  0
   14.6173  -22.5350    0.0000 C   0  0
   20.0387  -19.7057    0.0000 C   0  0
   20.8544  -19.7074    0.0000 C   0  0
   21.2617  -19.0031    0.0000 C   0  0
   20.8554  -18.2936    0.0000 N   0  0
   20.0372  -18.2930    0.0000 C   0  0
   19.6254  -19.0019    0.0000 C   0  0
  1  2  2  0
  2  3  1  0
  3  6  2  0
  5  4  2  0
  4  1  1  0
  5  6  1  0
  6  7  1  0
  7  8  1  0
  8  9  2  0
  9  5  1  0
  7 10  1  0
 11 12  2  0
 12 13  1  0
 13 14  2  0
 14 15  1  0
 15 16  2  0
 16 11  1  0
  8 11  1  0
 14 17  1  0
 17 18  1  0
 18 19  1  0
 19 20  1  0
 20 21  1  0
 21 22  2  0
 22 24  1  0
 23 20  1  0
 23 24  2  0
 24 25  1  0
 25 26  2  0
 26 27  1  0
 27 28  2  0
 28 23  1  0
 29 30  2  0
 30 31  1  0
 31 32  2  0
 32 33  1  0
 33 34  2  0
 34 29  1  0
 21 29  1  0
 10 35  1  0
 35 36  2  0
 36 37  1  0
 37 38  2  0
 38 39  1  0
 39 40  2  0
 40 35  1  0
 19 41  1  0
 41 42  1  0
 41 46  1  0
 42 43  1  0
 43 44  1  0
 44 45  1  0
 45 46  1  0
M  END