
  SciTegic04151115542D

 23 24  0  0  0  0            999 V2000
   -4.9681  -19.7625    0.0000 C   0  0
   -4.9693  -20.5898    0.0000 C   0  0
   -4.2544  -21.0027    0.0000 C   0  0
   -3.5380  -20.5894    0.0000 C   0  0
   -3.5409  -19.7588    0.0000 C   0  0
   -4.2562  -19.3497    0.0000 C   0  0
   -4.2546  -21.8277    0.0000 F   0  0
   -5.6841  -21.0018    0.0000 Cl  0  0
   -2.8279  -19.3436    0.0000 N   0  0
   -2.1119  -19.7534    0.0000 C   0  0
   -1.3990  -19.3383    0.0000 C   0  0
   -2.1088  -20.5784    0.0000 O   0  0
   -0.6830  -19.7481    0.0000 N   0  0
   -1.4021  -18.5133    0.0000 O   0  0
    0.0299  -19.3329    0.0000 C   0  0
    0.7459  -19.7427    0.0000 C   0  0
    0.7470  -20.5675    0.0000 C   0  0
    1.4589  -20.9773    0.0000 C   0  0
    2.1742  -20.5656    0.0000 N   0  0
    2.1731  -19.7396    0.0000 C   0  0
    1.4566  -19.3253    0.0000 C   0  0
    2.8887  -20.9781    0.0000 C   0  0
    2.8887  -21.8031    0.0000 C   0  0
  5  6  2  0
 10 12  2  0
  6  1  1  0
 11 13  1  0
  1  2  2  0
 11 14  2  0
  3  7  1  0
 13 15  1  0
 15 16  1  0
  3  4  2  0
 16 17  1  0
  2  8  1  0
  5  9  1  0
  4  5  1  0
  9 10  1  0
 16 21  1  0
 17 18  1  0
 18 19  1  0
 19 20  1  0
 20 21  1  0
  2  3  1  0
 19 22  1  0
 10 11  1  0
 22 23  1  0
M  END