
          11280714522D 1   1.00000     0.00000     0

 50 54  0     0  0            999 V2000
    5.9917   -6.8250    0.0000 N   0  0  3  0  0  0           0  0  0
    6.7917   -8.4917    0.0000 N   0  0  0  0  0  0           0  0  0
    7.1500   -7.7542    0.0000 C   0  0  3  0  0  0           0  0  0
    6.7917   -7.0042    0.0000 C   0  0  0  0  0  0           0  0  0
    5.9917   -8.6750    0.0000 C   0  0  0  0  0  0           0  0  0
   -0.0083   -0.9042    0.0000 C   0  0  0  0  0  0           0  0  0
    5.3500   -8.1625    0.0000 C   0  0  0  0  0  0           0  0  0
    5.3500   -7.3375    0.0000 C   0  0  0  0  0  0           0  0  0
    7.9750   -7.7625    0.0000 N   0  0  0  0  0  0           0  0  0
   -0.5583   -0.2917    0.0000 N   0  0  0  0  0  0           0  0  0
   -0.1708   -1.7125    0.0000 N   0  0  0  0  0  0           0  0  0
    8.3792   -8.4792    0.0000 C   0  0  0  0  0  0           0  0  0
   -0.3083    0.4875    0.0000 C   0  0  0  0  0  0           0  0  0
    0.8042   -0.8125    0.0000 S   0  0  0  0  0  0           0  0  0
    0.5417   -2.1125    0.0000 C   0  0  0  0  0  0           0  0  0
    5.8042   -6.0125    0.0000 C   0  0  0  0  0  0           0  0  0
    1.1500   -1.5542    0.0000 C   0  0  0  0  0  0           0  0  0
    5.0167   -5.7625    0.0000 C   0  0  0  0  0  0           0  0  0
    9.2042   -8.4792    0.0000 N   0  0  0  0  0  0           0  0  0
    3.4500   -5.2625    0.0000 C   0  0  0  0  0  0           0  0  0
    7.3042   -6.3500    0.0000 O   0  0  0  0  0  0           0  0  0
    5.8667   -9.4917    0.0000 C   0  0  0  0  0  0           0  0  0
    7.9667   -9.1917    0.0000 O   0  0  0  0  0  0           0  0  0
    4.4125   -6.3167    0.0000 N   0  0  0  0  0  0           0  0  0
    9.6167   -9.1917    0.0000 C   0  0  0  0  0  0           0  0  0
    4.8417   -4.9542    0.0000 O   0  0  0  0  0  0           0  0  0
    4.0542   -4.7042    0.0000 O   0  0  0  0  0  0           0  0  0
    0.4917    0.6708    0.0000 N   0  0  0  0  0  0           0  0  0
   -0.8625    1.0958    0.0000 N   0  0  0  0  0  0           0  0  0
    3.6292   -6.0667    0.0000 C   0  0  0  0  0  0           0  0  0
    2.6667   -5.0125    0.0000 N   0  0  0  0  0  0           0  0  0
    9.2042   -9.9042    0.0000 C   0  0  0  0  0  0           0  0  0
    4.6375   -8.5750    0.0000 C   0  0  0  0  0  0           0  0  0
    1.5167   -3.1542    0.0000 S   0  0  0  0  0  0           0  0  0
    0.7292   -2.9167    0.0000 C   0  0  0  0  0  0           0  0  0
    4.6375   -6.9250    0.0000 C   0  0  0  0  0  0           0  0  0
    9.6167  -10.6250    0.0000 C   0  0  0  0  0  0           0  0  0
   10.8625   -9.9042    0.0000 C   0  0  0  0  0  0           0  0  0
   10.4500   -9.1917    0.0000 C   0  0  0  0  0  0           0  0  0
    5.1000   -9.7917    0.0000 C   0  0  0  0  0  0           0  0  0
    6.5042  -10.0042    0.0000 C   0  0  0  0  0  0           0  0  0
    2.4875   -4.2042    0.0000 C   0  0  0  0  0  0           0  0  0
   10.4500  -10.6250    0.0000 C   0  0  0  0  0  0           0  0  0
    1.7042   -3.9625    0.0000 C   0  0  0  0  0  0           0  0  0
    9.2000  -11.3417    0.0000 C   0  0  0  0  0  0           0  0  0
    3.9167   -8.1625    0.0000 C   0  0  0  0  0  0           0  0  0
    3.9167   -7.3375    0.0000 C   0  0  0  0  0  0           0  0  0
    6.3792  -10.8167    0.0000 C   0  0  0  0  0  0           0  0  0
    4.9750  -10.6042    0.0000 C   0  0  0  0  0  0           0  0  0
    5.6167  -11.1250    0.0000 C   0  0  0  0  0  0           0  0  0
  2  3  1  0     0  0
  3  4  1  0     0  0
  4  1  1  0     0  0
  5  7  1  0     0  0
  6 11  2  0     0  0
  7  8  1  0     0  0
  8  1  1  0     0  0
  3  9  1  0     0  0
 10  6  1  0     0  0
 11 15  1  0     0  0
 12  9  1  0     0  0
 13 10  2  0     0  0
 14 17  1  0     0  0
 15 35  1  0     0  0
 16  1  1  0     0  0
 17 15  2  0     0  0
 18 16  1  0     0  0
 19 12  1  0     0  0
 20 30  1  0     0  0
 21  4  2  0     0  0
 22  5  1  0     0  0
 23 12  2  0     0  0
 24 18  1  0     0  0
 25 19  1  0     0  0
 26 18  2  0     0  0
 27 20  2  0     0  0
 28 13  1  0     0  0
 29 13  1  0     0  0
 30 24  1  0     0  0
 31 20  1  0     0  0
 32 25  2  0     0  0
 33  7  2  0     0  0
 34 44  1  0     0  0
 35 34  1  0     0  0
 36  8  2  0     0  0
 37 32  1  0     0  0
 38 39  2  0     0  0
 39 25  1  0     0  0
 40 22  2  0     0  0
 41 22  1  0     0  0
 42 31  1  0     0  0
 43 38  1  0     0  0
 44 42  1  0     0  0
 45 37  1  0     0  0
 46 47  2  0     0  0
 47 36  1  0     0  0
 48 41  2  0     0  0
 49 40  1  0     0  0
 50 48  1  0     0  0
  2  5  2  0     0  0
 46 33  1  0     0  0
 50 49  2  0     0  0
 43 37  2  0     0  0
  6 14  1  0     0  0
M  END