
  SciTegic01161211242D

 42 46  0  0  0  0            999 V2000
   -1.7086  -15.9985    0.0000 C   0  0
   -0.9922  -15.5852    0.0000 C   0  0
   -0.9950  -14.7547    0.0000 C   0  0
   -1.7104  -14.3455    0.0000 C   0  0
   -2.4234  -15.5857    0.0000 C   0  0
   -2.4268  -14.7568    0.0000 C   0  0
   -0.2821  -14.3395    0.0000 C   0  0
    0.4339  -14.7493    0.0000 N   0  0
   -0.2852  -13.5145    0.0000 O   0  0
    1.1468  -14.3341    0.0000 C   0  0
    1.8628  -14.7439    0.0000 C   0  0
    1.8628  -15.5678    0.0000 C   0  0
    2.5780  -15.9775    0.0000 C   0  0
    3.2919  -15.5622    0.0000 C   0  0
    3.2861  -14.7330    0.0000 C   0  0
    2.5704  -14.3270    0.0000 C   0  0
    3.9936  -14.3166    0.0000 C   0  0
    4.7113  -14.7256    0.0000 C   0  0
    5.4223  -14.3086    0.0000 C   0  0
    5.4167  -13.4828    0.0000 C   0  0
    4.6942  -13.0757    0.0000 C   0  0
    3.9862  -13.4951    0.0000 C   0  0
    6.1395  -14.7163    0.0000 C   0  0
    6.1502  -15.5373    0.0000 N   0  0
    5.4408  -15.9627    0.0000 C   0  0
    5.4558  -16.7840    0.0000 C   0  0  2  0  0  0
    6.1768  -17.1856    0.0000 N   0  0
    6.8845  -16.7596    0.0000 C   0  0
    6.8711  -15.9321    0.0000 C   0  0
   -3.1416  -14.3448    0.0000 C   0  0
   -3.1423  -13.5198    0.0000 N   0  0
    4.7483  -17.2084    0.0000 C   0  0
    4.0085  -15.9711    0.0000 F   0  0
   -2.4296  -13.1092    0.0000 C   0  0
   -2.4283  -12.2878    0.0000 C   0  0
   -3.1413  -11.8720    0.0000 N   0  0
   -3.8572  -12.2838    0.0000 C   0  0
   -3.8602  -13.1115    0.0000 C   0  0
   -3.1388  -11.0470    0.0000 C   0  0
   -3.8521  -10.6324    0.0000 C   0  0
   -3.8496   -9.8074    0.0000 C   0  0
   -4.5628   -9.3927    0.0000 O   0  0
 20 21  1  0
  5  6  2  0
 21 22  2  0
 22 17  1  0
 15 17  1  0
 10 11  1  0
 19 23  1  0
  1  2  2  0
 23 24  1  0
 24 25  1  0
 11 12  2  0
  5  1  1  0
 12 13  1  0
  2  3  1  0
 13 14  2  0
 24 29  1  0
 25 26  1  0
 26 27  1  0
 27 28  1  0
 28 29  1  0
  3  7  1  0
  6 30  1  0
 14 15  1  0
 30 31  1  0
 26 32  1  1
 15 16  2  0
 14 33  1  0
 31 34  1  0
 16 11  1  0
  7  8  1  0
  3  4  2  0
 17 18  2  0
  7  9  2  0
 31 38  1  0
 34 35  1  0
 35 36  1  0
 36 37  1  0
 37 38  1  0
 18 19  1  0
 36 39  1  0
  4  6  1  0
 39 40  1  0
 19 20  2  0
 40 41  1  0
  8 10  1  0
 41 42  1  0
M  END