
  SciTegic04191613082D

174183  0  0  1  0            999 V2000
   -6.4253   14.1664    0.0000 N   0  0
   -5.5860   12.9232    0.0000 C   0  0  1  0  0  0
   -4.2588   13.6491    0.0000 C   0  0
   -4.2232   15.1495    0.0000 C   0  0
   -2.9014   15.8828    0.0000 C   0  0
   -2.8674   17.3795    0.0000 C   0  0
   -4.1467   18.1575    0.0000 C   0  0
   -4.1127   19.6541    0.0000 C   0  0
   -2.7995   20.3728    0.0000 C   0  0
   -1.5202   19.5949    0.0000 C   0  0
   -1.5541   18.0982    0.0000 C   0  0
   -5.4600   17.4388    0.0000 C   0  0
   -5.5034   15.9265    0.0000 C   0  0
   -4.9972   11.5436    0.0000 C   0  0
   -3.8537   11.9076    0.0000 O   0  0
   -4.6801   10.0775    0.0000 N   0  0
   -4.6462    8.5778    0.0000 C   0  0  1  0  0  0
   -3.1373    8.4710    0.0000 C   0  0
   -2.2962    9.7140    0.0000 C   0  0
   -0.7991    9.6080    0.0000 C   0  0
   -0.1415    8.2589    0.0000 N   0  0
    1.3556    8.1530    0.0000 C   0  0
    2.0272    9.1475    0.0000 N   0  0
    1.8814    7.0743    0.0000 N   0  0
   -4.8968    7.0989    0.0000 C   0  0
   -3.7380    6.7869    0.0000 O   0  0
   -5.4227    5.6941    0.0000 N   0  0
   -6.2049    4.4142    0.0000 C   0  0  1  0  0  0
   -5.4051    3.8140    0.0000 C   0  0
   -7.2153    3.3055    0.0000 C   0  0
   -8.4172    2.4081    0.0000 N   0  0
   -9.7672    1.7543    0.0000 C   0  0  1  0  0  0
  -11.2166    1.3678    0.0000 C   0  0
  -12.7129    1.2626    0.0000 N   0  0
  -14.2020    1.4425    0.0000 C   0  0  2  0  0  0
  -12.7055    1.3281    0.0000 C   0  0
  -11.2151    1.4975    0.0000 N   0  0
   -9.7893    1.9635    0.0000 C   0  0  1  0  0  0
   -8.7425    0.8717    0.0000 C   0  0
   -9.1605   -0.5698    0.0000 C   0  0
  -10.6163   -0.9314    0.0000 C   0  0
  -11.0311   -2.3729    0.0000 C   0  0
   -9.9901   -3.4529    0.0000 C   0  0
   -8.5343   -3.0914    0.0000 C   0  0
   -8.1195   -1.6499    0.0000 C   0  0
   -8.4865    2.7069    0.0000 C   0  0
   -7.7893    1.7302    0.0000 O   0  0
   -7.3600    3.6974    0.0000 N   0  0
   -6.4559    4.8944    0.0000 C   0  0  2  0  0  0
   -5.8113    6.2488    0.0000 C   0  0
   -5.4526    7.7053    0.0000 N   0  0
   -5.3943    9.2041    0.0000 C   0  0  2  0  0  0
   -5.6390   10.6840    0.0000 C   0  0
   -6.1766   12.0844    0.0000 N   0  0
   -6.9851   13.3479    0.0000 C   0  0  2  0  0  0
   -8.0313   14.4227    0.0000 C   0  0
   -7.3890   15.1892    0.0000 O   0  0
   -9.2725   15.2650    0.0000 N   0  0
  -10.6579   15.8402    0.0000 C   0  0  2  0  0  0
  -12.1306   16.1247    0.0000 C   0  0
  -12.0234   17.3199    0.0000 O   0  0
  -13.6305   16.1069    0.0000 N   0  0
  -15.0962   15.7876    0.0000 C   0  0  2  0  0  0
  -16.4675   15.1798    0.0000 C   0  0
  -17.6884   14.3084    0.0000 N   0  0
  -18.7089   13.2090    0.0000 C   0  0  1  0  0  0
  -19.4872   11.9268    0.0000 C   0  0
  -19.9915   10.5141    0.0000 N   0  0
  -20.2011    9.0288    0.0000 C   0  0
  -20.1074    7.5317    0.0000 C   0  0
  -19.7142    6.0842    0.0000 C   0  0
  -19.0551    4.7357    0.0000 C   0  0
  -19.7723    6.0531    0.0000 C   0  0
  -20.2273    7.4824    0.0000 C   0  0
  -20.4036    8.9721    0.0000 C   0  0
  -20.2948   10.4681    0.0000 N   0  0
  -19.9048   11.9165    0.0000 C   0  0  2  0  0  0
  -19.2478   13.2650    0.0000 C   0  0
  -18.3474   14.4647    0.0000 N   0  0
  -17.2362   15.4723    0.0000 C   0  0
  -15.9545   16.2515    0.0000 C   0  0
  -14.5484   16.7740    0.0000 N   0  0
  -13.0689   17.0209    0.0000 C   0  0  2  0  0  0
  -13.1771   18.5298    0.0000 C   0  0  2  0  0  0
  -14.2567   19.0536    0.0000 C   0  0
  -12.1839   19.2032    0.0000 O   0  0
  -11.5693   16.9834    0.0000 C   0  0
  -10.1040   16.6628    0.0000 N   0  0
   -8.7258   16.0706    0.0000 C   0  0  1  0  0  0
   -7.4846   15.2284    0.0000 C   0  0
   -6.7195   16.1528    0.0000 O   0  0
   -7.5200   16.9773    0.0000 C   0  0
   -7.6962   18.4670    0.0000 C   0  0
   -9.0744   19.0591    0.0000 C   0  0
  -10.2763   18.1616    0.0000 C   0  0
  -11.4254   18.1748    0.0000 O   0  0
  -16.4775   17.3315    0.0000 O   0  0
  -20.1010   13.7865    0.0000 O   0  0
  -21.3225   12.4441    0.0000 C   0  0
  -22.4798   11.4885    0.0000 C   0  0
  -23.8864   12.0096    0.0000 C   0  0
  -25.0410   11.0521    0.0000 C   0  0
  -24.7891    9.5734    0.0000 C   0  0
  -23.3826    9.0522    0.0000 C   0  0
  -22.2279   10.0097    0.0000 C   0  0
  -21.4779   10.6685    0.0000 C   0  0
  -21.4034    8.9495    0.0000 O   0  0
  -20.4077    8.0627    0.0000 C   0  0
  -18.1014    3.5779    0.0000 C   0  0
  -18.9510    2.7304    0.0000 O   0  0
  -16.9459    2.6215    0.0000 N   0  0
  -15.6303    1.9010    0.0000 C   0  0
  -21.2003    9.0676    0.0000 O   0  0
  -19.5338   14.4769    0.0000 C   0  0
  -18.9895   15.5464    0.0000 O   0  0
  -21.0325   14.3980    0.0000 N   0  0
  -21.8510   15.6561    0.0000 C   0  0  1  0  0  0
  -23.3497   15.5772    0.0000 C   0  0
  -24.1682   16.8352    0.0000 C   0  0
  -25.6669   16.7564    0.0000 C   0  0
  -26.4854   18.0144    0.0000 C   0  0
  -27.6838   17.9513    0.0000 N   0  0
  -21.1731   16.9951    0.0000 C   0  0
  -21.8286   18.0002    0.0000 O   0  0
  -19.9749   17.0606    0.0000 O   0  0
  -17.0622   16.2221    0.0000 O   0  0
  -15.5632   17.2263    0.0000 C   0  0
  -14.5594   18.3420    0.0000 C   0  0
  -15.0229   19.7695    0.0000 C   0  0
  -14.0190   20.8852    0.0000 N   0  0
  -14.4825   22.3127    0.0000 C   0  0
  -13.6799   23.2048    0.0000 N   0  0
  -15.6563   22.5621    0.0000 N   0  0
   -9.7507   17.0505    0.0000 C   0  0
   -9.8322   18.5491    0.0000 C   0  0
   -8.5757   19.3698    0.0000 C   0  0
   -8.6572   20.8684    0.0000 N   0  0
   -7.4006   21.6891    0.0000 C   0  0
   -6.3302   21.1468    0.0000 N   0  0
   -7.4658   22.8873    0.0000 N   0  0
   -5.5491   13.8231    0.0000 C   0  0
   -4.4277   12.8255    0.0000 C   0  0
   -3.2501   13.7559    0.0000 C   0  0
   -1.8552   13.2021    0.0000 N   0  0
   -0.6775   14.1324    0.0000 C   0  0
    0.4378   13.6896    0.0000 N   0  0
   -0.8513   15.3198    0.0000 N   0  0
   -4.4810   10.9986    0.0000 O   0  0
   -3.8846    9.2957    0.0000 C   0  0
   -3.2134   10.6381    0.0000 C   0  0
   -1.7153   10.7290    0.0000 C   0  0
   -1.0441   12.0714    0.0000 N   0  0
    0.4539   12.1623    0.0000 C   0  0
    0.9906   13.2356    0.0000 N   0  0
    1.1154   11.1611    0.0000 N   0  0
   -4.6812    5.8454    0.0000 O   0  0
   -4.9730    4.5962    0.0000 C   0  0
   -4.4926    3.1744    0.0000 C   0  0
   -3.0125    2.8675    0.0000 C   0  0
   -2.5348    1.4487    0.0000 C   0  0
   -3.5247    0.3253    0.0000 C   0  0
   -4.9923    0.6208    0.0000 C   0  0
   -5.4837    2.0516    0.0000 C   0  0
   -3.0470   -1.0935    0.0000 C   0  0
   -1.5793   -1.3889    0.0000 C   0  0
   -0.5894   -0.2655    0.0000 C   0  0
   -1.0672    1.1533    0.0000 C   0  0
  -12.6833    0.1283    0.0000 O   0  0
  -11.0190    0.1842    0.0000 O   0  0
   -9.4189    0.8169    0.0000 C   0  0
   -6.4092    2.4166    0.0000 O   0  0
   -7.7261   16.0949    0.0000 H   0  0
  -13.8546   17.6395    0.0000 H   0  0
  -13.2069    1.3444    0.0000 H   0  0
  2  1  1  0
  2  3  1  1
  3  4  1  0
  4  5  2  0
  5  6  1  0
  7  6  1  0
  8  7  2  0
  9  8  1  0
 10  9  2  0
 11 10  1  0
  6 11  2  0
  7 12  1  0
 12 13  2  0
 13  4  1  0
  2 14  1  0
 14 15  2  0
 14 16  1  0
 16 17  1  0
 17 18  1  1
 18 19  1  0
 19 20  1  0
 20 21  1  0
 21 22  1  0
 22 23  1  0
 22 24  2  0
 17 25  1  0
 25 26  2  0
 25 27  1  0
 27 28  1  0
 28 29  1  1
 28 30  1  0
 30 31  1  0
 31 32  1  0
 32 33  1  0
 33 34  1  0
 34 35  1  0
 35 36  1  0
 36 37  1  0
 37 38  1  0
 38 39  1  6
 39 40  1  0
 41 40  1  0
 42 41  2  0
 43 42  1  0
 44 43  2  0
 45 44  1  0
 40 45  2  0
 38 46  1  0
 46 47  2  0
 46 48  1  0
 48 49  1  0
 49 50  1  0
 50 51  1  0
 51 52  1  0
 52 53  1  0
 53 54  1  0
 54 55  1  0
 55 56  1  0
 56 57  2  0
 56 58  1  0
 59 58  1  0
 60 59  1  0
 60 61  2  0
 62 60  1  0
 63 62  1  0
 64 63  1  0
 65 64  1  0
 66 65  1  0
 66 67  1  0
 68 67  1  0
 69 68  1  0
 70 69  1  0
 70 71  2  0
 71 72  1  0
 72 73  2  0
 73 74  1  0
 75 74  1  0
 76 75  1  0
 76 77  1  0
 77 78  1  0
 79 78  1  0
 80 79  1  0
 81 80  1  0
 82 81  1  0
 83 82  1  0
 83 84  1  0
 84 85  1  6
 84 86  1  0
 83 87  1  0
 88 87  1  0
 89 88  1  0
 89 90  1  0
  1 90  1  0
 90 91  2  0
 89 92  1  0
 92 93  1  0
 93 94  1  0
 94 95  1  0
 95 88  1  0
 87 96  2  0
 81 97  2  0
 78 98  2  0
 77 99  1  1
 99100  1  0
101100  1  0
102101  2  0
103102  1  0
104103  2  0
105104  1  0
100105  2  0
 76106  1  0
 75107  2  0
 74108  2  0
108 70  1  0
 72109  1  0
109110  2  0
109111  1  0
112111  1  0
 35112  1  0
 69113  2  0
 66114  1  1
114115  2  0
114116  1  0
117116  1  1
117118  1  0
118119  1  0
119120  1  0
120121  1  0
121122  1  0
117123  1  0
123124  2  0
123125  1  0
 64126  2  0
 63127  1  6
127128  1  0
128129  1  0
129130  1  0
130131  1  0
131132  2  0
131133  1  0
 59134  1  6
134135  1  0
135136  1  0
136137  1  0
137138  1  0
138139  1  0
138140  2  0
 55141  1  6
141142  1  0
142143  1  0
143144  1  0
144145  1  0
145146  2  0
145147  1  0
 53148  2  0
 52149  1  6
149150  1  0
150151  1  0
151152  1  0
152153  1  0
153154  2  0
153155  1  0
 50156  2  0
 49157  1  6
157158  1  0
158159  2  0
159160  1  0
161160  1  0
161162  1  0
162163  2  0
163158  1  0
164161  2  0
165164  1  0
166165  2  0
167166  1  0
160167  2  0
 36168  2  0
 33169  2  0
 32170  1  6
 30171  2  0
 89172  1  1
 83173  1  1
 35174  1  6
M  END