
          11280715332D 1   1.00000     0.00000     0

 23 25  0     1  0            999 V2000
    4.5292   -1.3125    0.0000 C   0  0  0  0  0  0           0  0  0
    5.1792   -5.9500    0.0000 N   0  3  0  0  0  0           0  0  0
    5.1667   -1.8250    0.0000 C   0  0  1  0  0  0           0  0  0
    4.5292   -0.4875    0.0000 C   0  0  0  0  0  0           0  0  0
    3.8167   -1.7250    0.0000 C   0  0  0  0  0  0           0  0  0
    5.1792   -6.7750    0.0000 N   0  5  0  0  0  0           0  0  0
    3.1000   -1.3125    0.0000 C   0  0  0  0  0  0           0  0  0
    6.3292   -0.8917    0.0000 N   0  0  3  0  0  0           0  0  0
    3.1000   -0.4917    0.0000 C   0  0  0  0  0  0           0  0  0
    3.8167   -0.0792    0.0000 C   0  0  0  0  0  0           0  0  0
    5.1750   -5.1292    0.0000 N   0  0  0  0  0  0           0  0  0
    5.9667   -1.6417    0.0000 C   0  0  0  0  0  0           0  0  0
    5.1750   -2.6500    0.0000 C   0  0  0  0  0  0           0  0  0
    5.1667    0.0208    0.0000 C   0  0  0  0  0  0           0  0  0
    4.4625   -3.0625    0.0000 C   0  0  0  0  0  0           0  0  0
    5.8917   -3.0625    0.0000 C   0  0  0  0  0  0           0  0  0
    5.9667   -0.1542    0.0000 C   0  0  0  0  0  0           0  0  0
    5.1750   -4.3042    0.0000 C   0  0  0  0  0  0           0  0  0
    2.3792   -0.0792    0.0000 I   0  0  0  0  0  0           0  0  0
    2.3792   -1.7250    0.0000 O   0  0  0  0  0  0           0  0  0
    5.8917   -3.8917    0.0000 C   0  0  0  0  0  0           0  0  0
    4.4625   -3.8917    0.0000 C   0  0  0  0  0  0           0  0  0
    7.1542   -0.8917    0.0000 C   0  0  0  0  0  0           0  0  0
  2 11  2  0     0  0
  3  1  1  0     0  0
  4  1  1  0     0  0
  5  1  2  0     0  0
  6  2  2  0     0  0
  7  5  1  0     0  0
  8 12  1  0     0  0
  9  7  2  0     0  0
 10  4  2  0     0  0
 11 18  1  0     0  0
 12  3  1  0     0  0
  3 13  1  1     0  0
 14  4  1  0     0  0
 15 13  1  0     0  0
 16 13  2  0     0  0
 17 14  1  0     0  0
 18 21  2  0     0  0
 19  9  1  0     0  0
 20  7  1  0     0  0
 21 16  1  0     0  0
 22 15  2  0     0  0
 23  8  1  0     0  0
  9 10  1  0     0  0
  8 17  1  0     0  0
 18 22  1  0     0  0
M  CHG  2   2   1   6  -1
M  END