
          11280715462D 1   1.00000     0.00000     0

 36 40  0     1  0            999 V2000
   -0.2458    0.3125    0.0000 N   0  0  3  0  0  0           0  0  0
   -0.8500   -0.1375    0.0000 C   0  0  0  0  0  0           0  0  0
   -0.4750    1.0500    0.0000 C   0  0  0  0  0  0           0  0  0
   -0.8500   -0.9167    0.0000 S   0  0  3  0  0  0           0  0  0
    0.1292    1.5125    0.0000 N   0  0  3  0  0  0           0  0  0
    0.7375    1.0583    0.0000 C   0  0  0  0  0  0           0  0  0
    0.5042    0.3125    0.0000 C   0  0  1  0  0  0           0  0  0
   -1.2208    1.0625    0.0000 N   0  0  0  0  0  0           0  0  0
   -0.8500   -1.7000    0.0000 N   0  0  3  0  0  0           0  0  0
   -1.4500    0.3208    0.0000 C   0  0  0  0  0  0           0  0  0
    0.1292    2.3000    0.0000 C   0  0  0  0  0  0           0  0  0
   -1.5333   -2.0792    0.0000 C   0  0  0  0  0  0           0  0  0
   -1.6000   -0.9125    0.0000 O   0  0  0  0  0  0           0  0  0
   -0.1125   -0.9250    0.0000 O   0  0  0  0  0  0           0  0  0
   -0.5125    2.6833    0.0000 C   0  0  0  0  0  0           0  0  0
    0.7792    2.6875    0.0000 C   0  0  0  0  0  0           0  0  0
    1.2167    0.1125    0.0000 C   0  0  0  0  0  0           0  0  0
    1.4500    1.3000    0.0000 O   0  0  0  0  0  0           0  0  0
    0.7792    3.4458    0.0000 C   0  0  0  0  0  0           0  0  0
   -0.5125    3.4458    0.0000 C   0  0  0  0  0  0           0  0  0
    0.1292    3.8458    0.0000 C   0  0  0  0  0  0           0  0  0
    0.5000   -0.4625    0.0000 C   0  0  0  0  0  0           0  0  0
    1.2167   -0.6625    0.0000 C   0  0  0  0  0  0           0  0  0
   -0.1833   -2.0875    0.0000 C   0  0  0  0  0  0           0  0  0
   -1.5375   -2.8542    0.0000 C   0  0  3  0  0  0           0  0  0
    1.2042   -2.2125    0.0000 C   0  0  0  0  0  0           0  0  0
   -1.1625    3.8458    0.0000 Cl  0  0  0  0  0  0           0  0  0
    1.4250    3.8458    0.0000 Cl  0  0  0  0  0  0           0  0  0
    1.2000   -2.9917    0.0000 Br  0  0  0  0  0  0           0  0  0
    1.8542   -1.0500    0.0000 C   0  0  0  0  0  0           0  0  0
    0.5625   -1.0417    0.0000 C   0  0  0  0  0  0           0  0  0
    1.8542   -1.8250    0.0000 C   0  0  0  0  0  0           0  0  0
    0.5625   -1.8250    0.0000 C   0  0  0  0  0  0           0  0  0
   -2.2125   -3.2417    0.0000 O   0  0  0  0  0  0           0  0  0
   -0.1875   -2.8667    0.0000 C   0  0  0  0  0  0           0  0  0
   -0.8625   -3.2500    0.0000 C   0  0  0  0  0  0           0  0  0
  2  1  1  0     0  0
  3  1  1  0     0  0
  4  2  1  0     0  0
  5  3  1  0     0  0
  6  7  1  0     0  0
  7  1  1  0     0  0
  8  3  2  0     0  0
  9  4  1  0     0  0
 10  2  2  0     0  0
 11  5  1  0     0  0
 12  9  1  0     0  0
 13  4  2  0     0  0
 14  4  2  0     0  0
 15 11  1  0     0  0
 16 11  2  0     0  0
  7 17  1  1     0  0
 18  6  2  0     0  0
 19 16  1  0     0  0
 20 15  2  0     0  0
 21 19  2  0     0  0
  7 22  1  6     0  0
 23 17  1  0     0  0
 24  9  1  0     0  0
 25 12  1  0     0  0
 26 33  2  0     0  0
 27 20  1  0     0  0
 28 19  1  0     0  0
 29 26  1  0     0  0
 30 23  1  0     0  0
 31 23  2  0     0  0
 32 30  2  0     0  0
 33 31  1  0     0  0
 34 25  1  0     0  0
 35 24  1  0     0  0
 36 35  1  0     0  0
  5  6  1  0     0  0
  8 10  1  0     0  0
 32 26  1  0     0  0
 20 21  1  0     0  0
 25 36  1  0     0  0
M  END