
          08180812472D 1   1.00000     0.00000     0

 34 37  0     0  0            999 V2000
   -2.5931   -4.9750    0.0000 C   0  0  0  0  0  0           0  0  0
   -2.5943   -5.8023    0.0000 C   0  0  0  0  0  0           0  0  0
   -1.8794   -6.2152    0.0000 C   0  0  0  0  0  0           0  0  0
   -1.1630   -5.8019    0.0000 C   0  0  0  0  0  0           0  0  0
   -1.1659   -4.9713    0.0000 C   0  0  0  0  0  0           0  0  0
   -1.8812   -4.5622    0.0000 C   0  0  0  0  0  0           0  0  0
   -3.3091   -6.2143    0.0000 C   0  0  0  0  0  0           0  0  0
   -0.4479   -6.2132    0.0000 C   0  0  0  0  0  0           0  0  0
   -3.3077   -4.5626    0.0000 N   0  0  0  0  0  0           0  0  0
   -3.3079   -3.7376    0.0000 C   0  0  0  0  0  0           0  0  0
   -4.0224   -3.3253    0.0000 C   0  0  0  0  0  0           0  0  0
   -2.5935   -3.3250    0.0000 O   0  0  0  0  0  0           0  0  0
   -4.0226   -2.5003    0.0000 N   0  0  3  0  0  0           0  0  0
   -3.3577   -2.0165    0.0000 C   0  0  0  0  0  0           0  0  0
   -3.6128   -1.2319    0.0000 C   0  0  0  0  0  0           0  0  0
   -4.4378   -1.2321    0.0000 S   0  0  0  0  0  0           0  0  0
   -4.6925   -2.0168    0.0000 C   0  0  0  0  0  0           0  0  0
   -2.5729   -2.2711    0.0000 O   0  0  0  0  0  0           0  0  0
   -5.4766   -2.2732    0.0000 O   0  0  0  0  0  0           0  0  0
   -3.1280   -0.5644    0.0000 C   0  0  0  0  0  0           0  0  0
   -3.4638    0.1892    0.0000 C   0  0  0  0  0  0           0  0  0
   -3.0514    0.9000    0.0000 N   0  0  3  0  0  0           0  0  0
   -3.6036    1.5130    0.0000 C   0  0  0  0  0  0           0  0  0
   -4.3573    1.1772    0.0000 C   0  0  0  0  0  0           0  0  0
   -4.2707    0.3568    0.0000 C   0  0  0  0  0  0           0  0  0
   -2.2352    0.9849    0.0000 C   0  0  0  0  0  0           0  0  0
   -1.7513    0.3153    0.0000 C   0  0  0  0  0  0           0  0  0
   -0.9315    0.4004    0.0000 C   0  0  0  0  0  0           0  0  0
   -0.5945    1.1544    0.0000 C   0  0  0  0  0  0           0  0  0
   -1.0835    1.8241    0.0000 C   0  0  0  0  0  0           0  0  0
   -1.9016    1.7357    0.0000 C   0  0  0  0  0  0           0  0  0
   -0.7538    2.5791    0.0000 C   0  0  0  0  0  0           0  0  0
    0.0665    2.6675    0.0000 O   0  0  0  0  0  0           0  0  0
   -1.2405    3.2453    0.0000 O   0  0  0  0  0  0           0  0  0
 16 17  1  0     0  0
 17 13  1  0     0  0
 14 18  2  0     0  0
  1  9  1  0     0  0
 17 19  2  0     0  0
  4  5  1  0     0  0
 15 20  2  0     0  0
  9 10  1  0     0  0
 20 21  1  0     0  0
 21 22  1  0     0  0
  2  3  1  0     0  0
 10 11  1  0     0  0
  5  6  2  0     0  0
 10 12  2  0     0  0
 22 23  1  0     0  0
 23 24  2  0     0  0
 24 25  1  0     0  0
 25 21  2  0     0  0
  6  1  1  0     0  0
 11 13  1  0     0  0
 26 27  2  0     0  0
 13 14  1  0     0  0
 27 28  1  0     0  0
  1  2  2  0     0  0
 28 29  2  0     0  0
  2  7  1  0     0  0
 29 30  1  0     0  0
  3  4  2  0     0  0
 30 31  2  0     0  0
 31 26  1  0     0  0
 22 26  1  0     0  0
  4  8  1  0     0  0
 14 15  1  0     0  0
 15 16  1  0     0  0
 32 33  1  0     0  0
 32 34  2  0     0  0
 30 32  1  0     0  0
M  END