
  SciTegic04201609482D

  9  9  0  0  0  0            999 V2000
    0.7500   -1.0323    0.0000 C   0  0
    1.2135    0.3943    0.0000 C   0  0
    0.0000    1.2760    0.0000 C   0  0
   -1.2135    0.3943    0.0000 S   0  0
   -0.7500   -1.0323    0.0000 C   0  0
   -1.6281   -2.2462    0.0000 C   0  0
   -2.8218   -2.1229    0.0000 N   0  0
   -1.1385   -3.3418    0.0000 O   0  0
    0.0000    2.4760    0.0000 Cl  0  0
  1  2  1  0
  2  3  2  0
  3  4  1  0
  4  5  1  0
  5  1  2  0
  6  7  1  0
  6  8  2  0
  5  6  1  0
  3  9  1  0
M  END