
  CDK    9/16/09,9:50

 39 43  0  0  0  0  0  0  0  0999 V2000
   -1.3806  -16.6625    0.0000 C   0  0  0  0  0  0  0  0  0  0  0  0
   -1.3818  -17.4898    0.0000 C   0  0  0  0  0  0  0  0  0  0  0  0
   -0.6669  -17.9027    0.0000 C   0  0  0  0  0  0  0  0  0  0  0  0
   -0.6687  -16.2497    0.0000 C   0  0  0  0  0  0  0  0  0  0  0  0
    0.0466  -16.6588    0.0000 C   0  0  0  0  0  0  0  0  0  0  0  0
    0.0469  -17.4899    0.0000 C   0  0  0  0  0  0  0  0  0  0  0  0
    0.8374  -17.7465    0.0000 N   0  0  0  0  0  0  0  0  0  0  0  0
    1.3257  -17.0740    0.0000 C   0  0  0  0  0  0  0  0  0  0  0  0
    0.8369  -16.4018    0.0000 N   0  0  0  0  0  0  0  0  0  0  0  0
    2.1507  -17.0737    0.0000 C   0  0  0  0  0  0  0  0  0  0  0  0
    2.5629  -16.3591    0.0000 C   0  0  0  0  0  0  0  0  0  0  0  0
    3.3879  -16.3588    0.0000 C   0  0  0  0  0  0  0  0  0  0  0  0
    3.8002  -15.6442    0.0000 C   0  0  0  0  0  0  0  0  0  0  0  0
    1.2417  -18.4583    0.0000 C   0  0  0  0  0  0  0  0  0  0  0  0
    2.0666  -18.4642    0.0000 C   0  0  0  0  0  0  0  0  0  0  0  0
    2.4714  -19.1824    0.0000 C   0  0  0  0  0  0  0  0  0  0  0  0
    3.2956  -19.1886    0.0000 C   0  0  0  0  0  0  0  0  0  0  0  0
    3.7140  -18.4765    0.0000 C   0  0  0  0  0  0  0  0  0  0  0  0
    3.3021  -17.7567    0.0000 C   0  0  0  0  0  0  0  0  0  0  0  0
    2.4793  -17.7541    0.0000 C   0  0  0  0  0  0  0  0  0  0  0  0
    4.5354  -18.4808    0.0000 C   0  0  0  0  0  0  0  0  0  0  0  0
    4.9432  -19.1993    0.0000 C   0  0  0  0  0  0  0  0  0  0  0  0
    5.7674  -19.2044    0.0000 C   0  0  0  0  0  0  0  0  0  0  0  0
    6.1848  -18.4917    0.0000 C   0  0  0  0  0  0  0  0  0  0  0  0
    5.7720  -17.7725    0.0000 C   0  0  0  0  0  0  0  0  0  0  0  0
    4.9491  -17.7710    0.0000 C   0  0  0  0  0  0  0  0  0  0  0  0
    4.5257  -19.9148    0.0000 C   0  0  0  0  0  0  0  0  0  0  0  0
    3.7007  -19.9092    0.0000 O   0  0  0  0  0  0  0  0  0  0  0  0
    4.9333  -20.6320    0.0000 O   0  0  0  0  0  0  0  0  0  0  0  0
   -2.0952  -16.2501    0.0000 N   0  0  0  0  0  0  0  0  0  0  0  0
   -2.8095  -16.6628    0.0000 C   0  0  0  0  0  0  0  0  0  0  0  0
   -3.5241  -16.2505    0.0000 C   0  0  0  0  0  0  0  0  0  0  0  0
   -2.8093  -17.4878    0.0000 O   0  0  0  0  0  0  0  0  0  0  0  0
   -3.5248  -15.4249    0.0000 C   0  0  0  0  0  0  0  0  0  0  0  0
   -4.2385  -15.0126    0.0000 C   0  0  0  0  0  0  0  0  0  0  0  0
   -4.9461  -15.4253    0.0000 C   0  0  0  0  0  0  0  0  0  0  0  0
   -4.9490  -16.2546    0.0000 C   0  0  0  0  0  0  0  0  0  0  0  0
   -4.2367  -16.6631    0.0000 C   0  0  0  0  0  0  0  0  0  0  0  0
   -5.6608  -15.0132    0.0000 Cl  0  0  0  0  0  0  0  0  0  0  0  0
 18 19  1  0  0  0  0 
  9  5  1  0  0  0  0 
 19 20  2  0  0  0  0 
 20 15  1  0  0  0  0 
  4  1  1  0  0  0  0 
  8 10  1  0  0  0  0 
 21 22  2  0  0  0  0 
  5  6  1  0  0  0  0 
 22 23  1  0  0  0  0 
 10 11  1  0  0  0  0 
 23 24  2  0  0  0  0 
 24 25  1  0  0  0  0 
 11 12  1  0  0  0  0 
 25 26  2  0  0  0  0 
 26 21  1  0  0  0  0 
 18 21  1  0  0  0  0 
  2  3  1  0  0  0  0 
 12 13  1  0  0  0  0 
  3  6  2  0  0  0  0 
 27 28  1  0  0  0  0 
 27 29  2  0  0  0  0 
 22 27  1  0  0  0  0 
  7 14  1  0  0  0  0 
  1 30  1  0  0  0  0 
  1  2  2  0  0  0  0 
 30 31  1  0  0  0  0 
 14 15  1  0  0  0  0 
 31 32  1  0  0  0  0 
  5  4  2  0  0  0  0 
 31 33  2  0  0  0  0 
 15 16  2  0  0  0  0 
 32 34  2  0  0  0  0 
  6  7  1  0  0  0  0 
 34 35  1  0  0  0  0 
 16 17  1  0  0  0  0 
 35 36  2  0  0  0  0 
  7  8  1  0  0  0  0 
 36 37  1  0  0  0  0 
 17 18  2  0  0  0  0 
 37 38  2  0  0  0  0 
 38 32  1  0  0  0  0 
  8  9  2  0  0  0  0 
 36 39  1  0  0  0  0 
M  END