
          11280714522D 1   1.00000     0.00000     0

 17 17  0     0  0            999 V2000
    1.7292   -1.9542    0.0000 O   0  0  0  0  0  0           0  0  0
    1.0167   -2.3667    0.0000 C   0  0  0  0  0  0           0  0  0
    1.0167   -3.2000    0.0000 C   0  0  0  0  0  0           0  0  0
    4.5917   -1.9417    0.0000 N   0  0  0  0  0  0           0  0  0
    2.4417   -2.3625    0.0000 C   0  0  0  0  0  0           0  0  0
    3.1625   -1.9500    0.0000 C   0  0  3  0  0  0           0  0  0
    3.1542   -1.1250    0.0000 O   0  0  0  0  0  0           0  0  0
    3.8792   -2.3542    0.0000 C   0  0  0  0  0  0           0  0  0
    5.3042   -2.3542    0.0000 C   0  0  0  0  0  0           0  0  0
    0.3042   -1.9542    0.0000 C   0  0  0  0  0  0           0  0  0
    1.7375   -3.6125    0.0000 C   0  0  0  0  0  0           0  0  0
    0.3042   -3.6125    0.0000 C   0  0  0  0  0  0           0  0  0
    6.0167   -1.9375    0.0000 C   0  0  3  0  0  0           0  0  0
    6.7292   -2.3417    0.0000 C   0  0  0  0  0  0           0  0  0
    6.0167   -1.1125    0.0000 C   0  0  0  0  0  0           0  0  0
   -0.4083   -3.2000    0.0000 C   0  0  0  0  0  0           0  0  0
   -0.4083   -2.3750    0.0000 C   0  0  0  0  0  0           0  0  0
  2  1  1  0     0  0
  3  2  1  0     0  0
  4  8  1  0     0  0
  5  1  1  0     0  0
  6  5  1  0     0  0
  7  6  1  0     0  0
  8  6  1  0     0  0
  9  4  1  0     0  0
 10  2  2  0     0  0
 11  3  1  0     0  0
 12  3  2  0     0  0
 13  9  1  0     0  0
 14 13  1  0     0  0
 15 13  1  0     0  0
 16 17  2  0     0  0
 17 10  1  0     0  0
 16 12  1  0     0  0
M  END