
  SciTegic07121116592D

 22 24  0  0  0  0            999 V2000
    0.3849    0.5296    0.0000 O   0  0
    0.8724   -1.9480    0.0000 N   0  0
    0.0878   -2.2030    0.0000 N   0  0
    1.5869   -0.7105    0.0000 N   0  0
   -0.9741    0.0881    0.0000 N   0  0
    0.8724   -1.1230    0.0000 C   0  0
    0.0878   -0.8681    0.0000 C   0  0
    1.5869   -2.3605    0.0000 C   0  0
   -0.1671   -0.0835    0.0000 C   0  0
   -0.3971   -1.5355    0.0000 C   0  0
    2.3014   -1.1230    0.0000 C   0  0
    2.3014   -1.9480    0.0000 C   0  0
   -1.2290    0.8727    0.0000 C   0  0
    1.5869   -3.1855    0.0000 C   0  0
    3.0158   -0.7105    0.0000 C   0  0
   -2.0360    1.0442    0.0000 C   0  0
   -0.6770    1.4858    0.0000 C   0  0
   -1.7389    2.4419    0.0000 C   0  0
   -2.2909    1.8288    0.0000 C   0  0
   -0.9319    2.2704    0.0000 C   0  0
   -1.9939    3.2265    0.0000 C   0  0
   -2.2488    4.0112    0.0000 C   0  0
  1  9  2  0
  2  3  1  0
  2  6  1  0
  2  8  1  0
  3 10  2  0
  4  6  1  0
  4 11  2  0
  5  9  1  0
  5 13  1  0
  6  7  2  0
  7  9  1  0
  7 10  1  0
  8 12  2  0
  8 14  1  0
 11 12  1  0
 11 15  1  0
 13 16  2  0
 13 17  1  0
 16 19  1  0
 17 20  2  0
 18 19  2  0
 18 20  1  0
 18 21  1  0
 21 22  3  0
M  END