
  SciTegic05071317032D

 23 23  0  0  0  0            999 V2000
   35.0533   -1.6174    0.0000 N   0  0
   35.7624   -2.0265    0.0000 C   0  0
   36.4665   -1.6187    0.0000 C   0  0
   36.4676   -0.8012    0.0000 N   0  0
   35.7585   -0.3931    0.0000 C   0  0
   35.0483   -0.8025    0.0000 C   0  0
   37.1753   -0.3926    0.0000 C   0  0
   37.8830   -0.8012    0.0000 C   0  0
   38.5908   -0.3926    0.0000 C   0  0
   39.2985   -0.8012    0.0000 N   0  0
   28.6869   -2.0471    0.0000 C   0  0
   28.6858   -2.8666    0.0000 C   0  0
   29.3938   -3.2756    0.0000 C   0  0
   30.1035   -2.8661    0.0000 C   0  0
   30.1007   -2.0435    0.0000 C   0  0
   29.3921   -1.6382    0.0000 C   0  0
   30.8068   -1.6322    0.0000 O   0  0
   31.5161   -2.0381    0.0000 C   0  0
   32.2223   -1.6269    0.0000 C   0  0
   32.9315   -2.0328    0.0000 C   0  0
   33.6377   -1.6215    0.0000 C   0  0
   34.3469   -2.0275    0.0000 C   0  0
   34.8500   -3.6369    0.0000 Cl  0  0
  1  2  1  0
  1  6  1  0
  2  3  1  0
  3  4  1  0
  4  5  1  0
  5  6  1  0
  4  7  1  0
  7  8  1  0
  8  9  1  0
  9 10  1  0
 11 12  2  0
 12 13  1  0
 13 14  2  0
 14 15  1  0
 15 16  2  0
 16 11  1  0
 15 17  1  0
 17 18  1  0
 18 19  1  0
 19 20  1  0
 20 21  1  0
 21 22  1  0
 22  1  1  0
M  END