
  SciTegic02011310402D

 26 29  0  0  0  0            999 V2000
   -4.6135  -10.0575    0.0000 C   0  0
   -4.6147  -10.8848    0.0000 C   0  0
   -3.9000  -11.2976    0.0000 C   0  0
   -3.9018   -9.6447    0.0000 N   0  0
   -3.1864  -10.0539    0.0000 C   0  0
   -3.1876  -10.8868    0.0000 C   0  0
   -2.4708  -11.3021    0.0000 C   0  0
   -1.7482  -10.8889    0.0000 N   0  0
   -1.7470  -10.0559    0.0000 N   0  0
   -2.4684   -9.6361    0.0000 C   0  0
   -2.4731  -12.1270    0.0000 C   0  0
   -3.1887  -12.5375    0.0000 C   0  0
   -3.8993  -12.1182    0.0000 C   0  0
   -4.6143  -12.5280    0.0000 C   0  0
   -4.6171  -13.3538    0.0000 C   0  0
   -3.8989  -13.7681    0.0000 C   0  0
   -3.1867  -13.3559    0.0000 C   0  0
   -5.3322  -13.7652    0.0000 Cl  0  0
   -2.4684   -8.8112    0.0000 O   0  0
   -1.0316   -9.6452    0.0000 C   0  0
   -0.3182  -10.0594    0.0000 C   0  0  1  0  0  0
   -0.3053  -10.8815    0.0000 C   0  0
    0.4840  -11.1216    0.0000 C   0  0
    0.9561  -10.4450    0.0000 C   0  0
    0.4587   -9.7871    0.0000 N   0  0
    0.6969   -8.9973    0.0000 C   0  0
  2  3  1  0
 12 13  2  0
  3  6  2  0
 13 14  1  0
  1  2  2  0
 14 15  2  0
  5  4  2  0
 15 16  1  0
  4  1  1  0
 16 17  2  0
 17 12  1  0
  5 10  1  0
 15 18  1  0
  6  7  1  0
 10 19  2  0
  7  8  2  0
  9 20  1  0
  8  9  1  0
 21 20  1  6
 21 22  1  0
  9 10  1  0
  5  6  1  0
  7 11  1  0
 22 23  1  0
 23 24  1  0
 24 25  1  0
 25 21  1  0
 11 12  1  0
 25 26  1  0
M  END