
  SciTegic05061116452D

 38 41  0  0  0  0            999 V2000
   11.1777  -18.2166    0.0000 C   0  0
   11.1766  -19.0440    0.0000 C   0  0
   11.8914  -19.4569    0.0000 C   0  0
   12.6078  -19.0435    0.0000 C   0  0
   12.6050  -18.2130    0.0000 C   0  0
   11.8896  -17.8039    0.0000 C   0  0
   11.8912  -20.2819    0.0000 N   0  0
   11.1766  -20.6942    0.0000 C   0  0
   10.4622  -20.2815    0.0000 C   0  0
   12.6056  -20.6945    0.0000 C   0  0
   12.6054  -21.5195    0.0000 C   0  0
   13.3201  -20.2822    0.0000 C   0  0
   14.0345  -20.6949    0.0000 O   0  0
   13.3203  -19.4572    0.0000 O   0  0
   11.8904  -21.9275    0.0000 C   0  0
   11.8898  -22.7518    0.0000 C   0  0
   12.6047  -23.1653    0.0000 C   0  0
   13.3217  -22.7485    0.0000 C   0  0
   13.3187  -21.9256    0.0000 C   0  0
   11.8871  -16.9789    0.0000 C   0  0
   12.6007  -16.5641    0.0000 N   0  0
   13.2723  -15.4085    0.0000 N   0  0
   12.5175  -15.7414    0.0000 C   0  0
   11.8045  -15.3263    0.0000 C   0  0
   11.8076  -14.5013    0.0000 C   0  0
   11.0947  -14.0862    0.0000 C   0  0
   11.0977  -13.2612    0.0000 C   0  0
   13.8221  -16.0237    0.0000 C   0  0
   13.4045  -16.7333    0.0000 C   0  0
   13.8109  -17.4464    0.0000 C   0  0
   14.6334  -17.4536    0.0000 C   0  0
   15.0491  -16.7392    0.0000 C   0  0
   14.6410  -16.0278    0.0000 C   0  0
   13.8269  -18.2712    0.0000 C   0  0
   14.5493  -18.6698    0.0000 O   0  0
   15.8741  -16.7418    0.0000 O   0  0
   16.2888  -16.0286    0.0000 C   0  0
   13.1206  -18.6975    0.0000 O   0  0
 18 19  2  0
 19 11  1  0
  4  5  1  0
  6 20  1  0
  7 10  1  0
 20 21  1  0
 21 29  1  0
  2  3  1  0
 10 11  1  0
 28 22  1  0
 22 23  2  0
 23 21  1  0
  5  6  2  0
 23 24  1  0
 10 12  1  0
 24 25  1  0
  6  1  1  0
 25 26  1  0
 12 13  1  0
 26 27  1  0
  1  2  2  0
 12 14  2  0
 28 29  2  0
  3  7  1  0
 29 30  1  0
 11 15  2  0
 30 31  2  0
  3  4  2  0
 31 32  1  0
 15 16  1  0
 32 33  2  0
 33 28  1  0
  7  8  1  0
 30 34  1  0
 16 17  2  0
 34 35  1  0
 32 36  1  0
 17 18  1  0
 36 37  1  0
  8  9  1  0
 34 38  2  0
M  END