
  SciTegic12231509382D

 22 23  0  0  1  0            999 V2000
    3.2252   -0.2812    0.0000 Br  0  0
    1.9990    0.8229    0.0000 O   0  0
    0.0867   -1.3009    0.0000 O   0  0
    0.6013    1.1200    0.0000 O   0  0
   -0.3548    0.0581    0.0000 N   0  0
   -2.4200    0.8401    0.0000 N   0  0
    1.0429   -0.2390    0.0000 C   0  0
    1.8275    0.0159    0.0000 C   0  0
    0.8714   -1.0460    0.0000 C   0  0
    0.4298    0.3130    0.0000 C   0  0
    2.4406   -0.5361    0.0000 C   0  0
    1.4845   -1.5980    0.0000 C   0  0
    2.2691   -1.3431    0.0000 C   0  0
   -1.7525    0.3552    0.0000 C   0  0  2  0  0  0
   -0.9679    0.6101    0.0000 C   0  0
   -2.0075   -0.4294    0.0000 C   0  0
   -3.0874    0.3552    0.0000 C   0  0
   -2.8325   -0.4294    0.0000 C   0  0
   -2.4200    1.6651    0.0000 C   0  0
    2.7837    1.0778    0.0000 C   0  0
   -0.0848   -2.1079    0.0000 C   0  0
   -3.1344    2.0776    0.0000 C   0  0
  1 11  1  0
  2  8  1  0
  2 20  1  0
  3  9  1  0
  3 21  1  0
  4 10  2  0
  5 10  1  0
  5 15  1  0
  6 14  1  0
  6 17  1  0
  6 19  1  0
  7  8  1  0
  7  9  2  0
  7 10  1  0
  8 11  2  0
  9 12  1  0
 11 13  1  0
 12 13  2  0
 14 15  1  6
 14 16  1  0
 16 18  1  0
 17 18  1  0
 19 22  1  0
M  END