
  SciTegic12231509382D

 23 23  0  0  0  0            999 V2000
    2.3292   -5.2792    0.0000 C   0  0
    2.9792   -4.9292    0.0000 C   0  0
    8.4750   -5.1750    0.0000 C   0  0
    3.5875   -5.3042    0.0000 O   0  0
    7.8542   -4.8500    0.0000 N   0  0
    2.3292   -5.9875    0.0000 C   0  0
    8.4667   -5.9000    0.0000 O   0  0
    2.9792   -4.2125    0.0000 O   0  0
    6.0625   -5.2667    0.0000 N   0  0
    6.6500   -4.9042    0.0000 C   0  0
    9.0625   -4.8000    0.0000 N   0  0
    7.2667   -5.2167    0.0000 C   0  0
    4.8250   -5.3375    0.0000 C   0  0
    4.2042   -4.9750    0.0000 C   0  0
    5.4417   -4.9542    0.0000 C   0  0
    2.9375   -6.3542    0.0000 F   0  0
    1.7250   -4.9042    0.0000 C   0  0
    4.8250   -6.0542    0.0000 O   0  0
    1.6917   -6.3250    0.0000 C   0  0
    6.8292   -4.2167    0.0000 C   0  0
    6.4667   -4.2250    0.0000 C   0  0
    1.1042   -5.2417    0.0000 C   0  0
    1.0875   -5.9542    0.0000 C   0  0
  2  1  1  0
  3  5  1  0
  4  2  1  0
  5 12  1  0
  6  1  2  0
  7  3  2  0
  8  2  2  0
  9 15  1  0
 10  9  1  0
 11  3  1  0
 12 10  1  0
 13 14  1  0
 14  4  1  0
 15 13  1  0
 16  6  1  0
 17  1  1  0
 18 13  1  0
 19  6  1  0
 20 10  1  0
 21 10  1  0
 22 17  2  0
 23 22  1  0
 23 19  2  0
M  END