
  SciTegic09081514192D

 26 29  0  0  0  0            999 V2000
    1.2990   -0.7500    0.0000 C   0  0
    1.2990    0.7500    0.0000 C   0  0
    0.0000    1.5000    0.0000 C   0  0
   -1.2990    0.7500    0.0000 C   0  0
   -1.2990   -0.7500    0.0000 C   0  0
    0.0000   -1.5000    0.0000 C   0  0
    2.5987    1.5004    0.0000 C   0  0
    3.9511    0.8815    0.0000 C   0  0
    4.9530    1.9978    0.0000 N   0  0
    4.2010    3.2957    0.0000 C   0  0
    2.7342    2.9815    0.0000 N   0  0
    1.6137    3.9759    0.0000 C   0  0
   -2.5988   -1.5004    0.0000 C   0  0
   -3.6380   -2.1004    0.0000 N   0  0
    4.2568   -0.5878    0.0000 C   0  0
    3.3397   -1.7522    0.0000 C   0  0
    4.1890   -2.9886    0.0000 N   0  0
    5.6273   -2.5629    0.0000 N   0  0
    5.6670   -1.0635    0.0000 C   0  0
    6.5792   -3.2937    0.0000 C   0  0
    1.9142    5.4464    0.0000 C   0  0
    0.8997    6.5339    0.0000 C   0  0
    1.6422    7.8372    0.0000 N   0  0
    3.1112    7.5338    0.0000 N   0  0
    3.2766    6.0430    0.0000 C   0  0
    3.9983    8.3419    0.0000 C   0  0
  1  2  2  0
  2  3  1  0
  3  4  2  0
  4  5  1  0
  5  6  2  0
  6  1  1  0
  7  8  2  0
  8  9  1  0
  9 10  2  0
 10 11  1  0
 11  7  1  0
  2  7  1  0
 11 12  1  0
  5 13  1  0
 13 14  3  0
 15 16  1  0
 16 17  2  0
 17 18  1  0
 18 19  1  0
 19 15  2  0
  8 15  1  0
 18 20  1  0
 12 21  1  0
 21 22  1  0
 22 23  2  0
 23 24  1  0
 24 25  1  0
 25 21  2  0
 24 26  1  0
M  END