
  SciTegic04181615532D

 22 24  0  0  0  0            999 V2000
   -2.6111    0.7486    0.0000 C   0  0
   -2.6111   -0.7486    0.0000 C   0  0
   -1.2964   -1.4973    0.0000 C   0  0
   -1.2964    1.4973    0.0000 C   0  0
    0.0000    0.7486    0.0000 C   0  0
    0.0000   -0.7486    0.0000 C   0  0
    1.2964   -1.4973    0.0000 N   0  0
    2.5929   -0.7486    0.0000 C   0  0
    2.5929    0.7486    0.0000 N   0  0
    1.2964    1.4973    0.0000 C   0  0
    1.2995    2.9981    0.0000 N   0  0
    2.6003    3.7467    0.0000 C   0  0
    2.6034    5.2475    0.0000 C   0  0
    3.6435    5.8460    0.0000 C   0  0
    3.8942   -1.4964    0.0000 N   0  0
    5.1929   -0.7441    0.0000 C   0  0
    6.4942   -1.4919    0.0000 C   0  0
    7.7933   -0.7419    0.0000 C   0  0
    9.0923   -1.4919    0.0000 C   0  0
    9.0923   -2.9919    0.0000 C   0  0
    7.7933   -3.7419    0.0000 C   0  0
    6.4943   -2.9919    0.0000 N   0  0
  1  2  2  0
  2  3  1  0
  3  6  2  0
  5  4  2  0
  4  1  1  0
  5  6  1  0
  6  7  1  0
  7  8  2  0
  8  9  1  0
  9 10  2  0
 10  5  1  0
 10 11  1  0
 11 12  1  0
 12 13  1  0
 13 14  2  0
  8 15  1  0
 15 16  1  0
 16 17  1  0
 17 18  2  0
 18 19  1  0
 19 20  2  0
 20 21  1  0
 21 22  2  0
 22 17  1  0
M  END