
  SciTegic02271514372D

 24 25  0  0  0  0            999 V2000
    5.4657   -5.7196    0.0000 C   0  0
    6.1801   -6.1321    0.0000 C   0  0
    6.8946   -5.7196    0.0000 C   0  0
    7.6091   -6.1321    0.0000 C   0  0
    7.6091   -6.9571    0.0000 C   0  0
    6.8946   -7.3696    0.0000 C   0  0
    6.1801   -6.9571    0.0000 C   0  0
    5.4657   -4.8946    0.0000 O   0  0
    4.7512   -6.1321    0.0000 O   0  0
    6.8946   -4.8946    0.0000 C   0  0
    7.6091   -4.4821    0.0000 C   0  0
    7.6091   -3.6571    0.0000 C   0  0
    6.8946   -3.2446    0.0000 N   0  0
    6.8946   -2.4196    0.0000 C   0  0
    6.1801   -2.0071    0.0000 C   0  0
    6.1801   -1.1821    0.0000 C   0  0
    6.8946   -0.7696    0.0000 C   0  0
    7.6091   -1.1821    0.0000 C   0  0
    7.6091   -2.0071    0.0000 N   0  0
    8.3236   -3.2446    0.0000 O   0  0
    5.4657   -7.3696    0.0000 O   0  0
    8.3236   -7.3696    0.0000 O   0  0
    8.3236   -5.7196    0.0000 Cl  0  0
    4.7512   -6.9571    0.0000 C   0  0
  1  2  1  0
  2  3  1  0
  3  4  2  0
  4  5  1  0
  5  6  2  0
  6  7  1  0
  2  7  2  0
  1  8  2  0
  1  9  1  0
 10 11  1  0
 11 12  1  0
 14 15  1  0
 15 16  2  0
 16 17  1  0
 17 18  2  0
 18 19  1  0
 14 19  2  0
 13 14  1  0
 12 13  1  0
 12 20  2  0
  3 10  1  0
  7 21  1  0
  5 22  1  0
  4 23  1  0
  9 24  1  0
M  END