
  Mrv0541 04051115152D          

 16 17  0  0  0  0            999 V2000
    2.1593    0.4250    0.0000 C   0  0  0  0  0  0  0  0  0  0  0  0
    2.1593   -0.4000    0.0000 C   0  0  0  0  0  0  0  0  0  0  0  0
    1.4448   -0.8125    0.0000 C   0  0  0  0  0  0  0  0  0  0  0  0
    1.4448    0.8375    0.0000 C   0  0  0  0  0  0  0  0  0  0  0  0
   -0.0543   -0.6550    0.0000 N   0  0  0  0  0  0  0  0  0  0  0  0
    0.7303    0.4250    0.0000 C   0  0  0  0  0  0  0  0  0  0  0  0
    0.7303   -0.4000    0.0000 C   0  0  0  0  0  0  0  0  0  0  0  0
   -0.5392    0.0125    0.0000 C   0  0  0  0  0  0  0  0  0  0  0  0
   -0.0543    0.6799    0.0000 N   0  0  0  0  0  0  0  0  0  0  0  0
   -1.3642    0.0125    0.0000 N   0  0  0  0  0  0  0  0  0  0  0  0
   -1.7767   -0.7020    0.0000 C   0  0  0  0  0  0  0  0  0  0  0  0
   -1.7767    0.7269    0.0000 C   0  0  0  0  0  0  0  0  0  0  0  0
    2.8737    0.8375    0.0000 Br  0  0  0  0  0  0  0  0  0  0  0  0
    2.8737   -0.8125    0.0000 Br  0  0  0  0  0  0  0  0  0  0  0  0
    1.4448   -1.6375    0.0000 Br  0  0  0  0  0  0  0  0  0  0  0  0
    1.4448    1.6625    0.0000 Br  0  0  0  0  0  0  0  0  0  0  0  0
  1  2  2  0  0  0  0
  1  4  1  0  0  0  0
 13  1  1  0  0  0  0
  2  3  1  0  0  0  0
 14  2  1  0  0  0  0
  3  7  2  0  0  0  0
 15  3  1  0  0  0  0
  4  6  2  0  0  0  0
 16  4  1  0  0  0  0
  7  5  1  0  0  0  0
  8  5  1  0  0  0  0
  6  7  1  0  0  0  0
  6  9  1  0  0  0  0
  8  9  2  0  0  0  0
  8 10  1  0  0  0  0
 11 10  1  0  0  0  0
 12 10  1  0  0  0  0
M  END