
  SciTegic11201309402D

 77 80  0  0  1  0            999 V2000
    8.2125   -2.0750    0.0000 N   0  0
    7.5000   -2.4792    0.0000 C   0  0
    9.7417   -2.4792    0.0000 C   0  0
    1.1042   -2.0917    0.0000 C   0  0
   -1.1500   -0.7292    0.0000 C   0  0
    6.7917   -2.0792    0.0000 C   0  0  1  0  0  0
   -0.3125   -2.1000    0.0000 N   0  0
   -1.0208   -2.5000    0.0000 C   0  0
    9.0292   -2.0750    0.0000 C   0  0  1  0  0  0
    5.3667   -2.0792    0.0000 C   0  0
    3.2417   -2.4875    0.0000 C   0  0
    6.0792   -2.4792    0.0000 N   0  0
    1.8167   -2.4917    0.0000 N   0  0
   -0.0458   -0.2625    0.0000 N   0  0
    3.9500   -2.0875    0.0000 N   0  0
    0.4000   -2.4917    0.0000 C   0  0  1  0  0  0
   10.4542   -2.0792    0.0000 N   0  0
    2.5292   -2.0917    0.0000 C   0  0  2  0  0  0
    4.6625   -2.4792    0.0000 C   0  0  1  0  0  0
   -0.4250   -0.8875    0.0000 C   0  0
   -3.1500   -2.1042    0.0000 C   0  0
    4.6625   -3.2792    0.0000 C   0  0
    2.5292   -1.2875    0.0000 C   0  0
   -1.7333   -2.1042    0.0000 C   0  0  2  0  0  0
   11.8875   -2.0542    0.0000 C   0  0
   12.6542   -5.6542    0.0000 C   0  0
   -2.4458   -2.5042    0.0000 N   0  0
   -1.2208    0.0000    0.0000 C   0  0
   -1.7333   -1.3000    0.0000 C   0  0
   -3.8625   -2.5042    0.0000 C   0  0
    5.3792   -3.6792    0.0000 C   0  0
    2.9375   -0.5917    0.0000 C   0  0
   12.6042   -2.4417    0.0000 N   0  0
   -0.5333    0.2833    0.0000 C   0  0
   11.1792   -2.4667    0.0000 C   0  0  2  0  0  0
   -4.5833   -2.1042    0.0000 C   0  0
   14.0292   -2.4167    0.0000 C   0  0
   11.9500   -6.0667    0.0000 N   0  0
    7.5000   -3.2792    0.0000 O   0  0
    9.7417   -3.2792    0.0000 O   0  0
    1.1042   -1.2875    0.0000 O   0  0
   -1.0208   -3.3042    0.0000 O   0  0
    3.2417   -3.2917    0.0000 O   0  0
    5.3667   -1.2750    0.0000 O   0  0
   -3.1500   -1.3000    0.0000 O   0  0
   11.8750   -1.2542    0.0000 O   0  0
    6.0875   -3.2792    0.0000 O   0  0
    3.7542   -0.5792    0.0000 O   0  0
   14.0417   -3.2250    0.0000 O   0  0
   12.6417   -4.8542    0.0000 N   0  0
   13.3042   -2.0292    0.0000 C   0  0
   13.3792   -6.0417    0.0000 N   0  0
    7.9542   -1.3042    0.0000 C   0  0
   -4.5833   -2.9042    0.0000 S   0  0
    0.4000   -3.2917    0.0000 C   0  0  2  0  0  0
    5.3792   -4.4875    0.0000 N   0  0
    2.5167    0.1000    0.0000 N   0  0
   14.7375   -2.0042    0.0000 N   0  0
    6.7917   -1.2750    0.0000 C   0  0
    7.5000   -0.8667    0.0000 S   0  0
    9.2917   -1.3042    0.0000 C   0  0
    8.6167   -0.8375    0.0000 C   0  0
   -1.8208    0.4375    0.0000 C   0  0
   -4.5833   -1.3000    0.0000 C   0  0
   -5.2875   -2.5042    0.0000 C   0  0
   11.1875   -3.2667    0.0000 C   0  0
   -0.4375    1.0083    0.0000 C   0  0
   11.9250   -4.4625    0.0000 C   0  0
   -0.3125   -3.6917    0.0000 C   0  0
    1.1167   -3.6917    0.0000 C   0  0
   11.9125   -3.6625    0.0000 C   0  0
   -0.3125   -4.5000    0.0000 C   0  0
   -1.7333    1.1708    0.0000 C   0  0
   -5.2875   -0.9000    0.0000 C   0  0
   -6.0042   -2.1042    0.0000 C   0  0
   -1.0375    1.4458    0.0000 C   0  0
   -6.0042   -1.3000    0.0000 C   0  0
  2  1  1  0
  9  3  1  6
  4 13  1  0
  5 29  1  0
  6  2  1  0
 16  7  1  6
  8  7  1  0
  9  1  1  0
 10 12  1  0
 11 15  1  0
  6 12  1  1
 18 13  1  6
 14 20  1  0
 19 15  1  6
 16  4  1  0
 17  3  1  0
 18 11  1  0
 19 10  1  0
 20  5  2  0
 21 27  1  0
 19 22  1  0
 18 23  1  0
 24  8  1  0
 25 35  1  0
 26 50  2  0
 24 27  1  6
 28  5  1  0
 24 29  1  0
 30 21  1  0
 31 22  1  0
 32 23  1  0
 33 25  1  0
 34 28  2  0
 35 17  1  6
 36 30  1  0
 37 51  1  0
 38 26  1  0
 39  2  2  0
 40  3  2  0
 41  4  2  0
 42  8  2  0
 43 11  2  0
 44 10  2  0
 45 21  2  0
 46 25  2  0
 47 31  2  0
 48 32  2  0
 49 37  2  0
 50 68  1  0
 51 33  1  0
 52 26  1  0
 53  1  1  0
 54 36  1  0
 16 55  1  0
 56 31  1  0
 57 32  1  0
 58 37  1  0
  6 59  1  0
 60 59  1  0
  9 61  1  0
 62 53  1  0
 63 28  1  0
 64 36  1  0
 65 36  1  0
 35 66  1  0
 67 34  1  0
 68 71  1  0
 69 55  1  0
 55 70  1  1
 71 66  1  0
 72 69  1  0
 73 63  2  0
 74 64  1  0
 75 65  1  0
 76 73  1  0
 77 75  1  0
 61 62  1  0
 34 14  1  0
 67 76  2  0
 74 77  1  0
M  END