
  SciTegic01181116592D

 26 28  0  0  0  0            999 V2000
    4.0069  -11.2833    0.0000 C   0  0
    4.0057  -12.1107    0.0000 C   0  0
    4.7206  -12.5235    0.0000 C   0  0
    5.4370  -12.1102    0.0000 C   0  0
    5.4341  -11.2797    0.0000 C   0  0
    4.7188  -10.8705    0.0000 C   0  0
    3.2909  -12.5226    0.0000 Cl  0  0
    6.1471  -10.8645    0.0000 C   0  0
    6.8631  -11.2743    0.0000 C   0  0
    6.1439  -10.0395    0.0000 O   0  0
    4.7204  -13.3485    0.0000 S   0  0
    5.4347  -13.7612    0.0000 N   0  0
    3.9167  -13.1292    0.0000 O   0  0
    4.1292  -13.9292    0.0000 O   0  0
    7.5761  -10.8589    0.0000 N   0  0
    8.3209   -9.7559    0.0000 N   0  0
    7.5456  -10.0375    0.0000 C   0  0
    8.8285  -10.4063    0.0000 C   0  0
    8.3658  -11.0884    0.0000 C   0  0
    8.7253  -11.8280    0.0000 C   0  0
    9.5472  -11.8868    0.0000 C   0  0
   10.0083  -11.1998    0.0000 C   0  0
    9.6463  -10.4629    0.0000 C   0  0
    6.8265   -9.6330    0.0000 C   0  0
    6.8173   -8.8081    0.0000 C   0  0
    6.0000   -9.6250    0.0000 C   0  0
 11 13  2  0
  1  2  2  0
 11 14  2  0
  2  7  1  0
  9 15  1  0
 15 19  1  0
  3  4  2  0
  5  8  1  0
 18 16  1  0
 16 17  2  0
 17 15  1  0
  8  9  1  0
 18 19  2  0
  4  5  1  0
 19 20  1  0
  8 10  2  0
 20 21  2  0
  2  3  1  0
 21 22  1  0
  3 11  1  0
 22 23  2  0
 23 18  1  0
  5  6  2  0
 17 24  1  0
 11 12  1  0
 24 25  1  0
  6  1  1  0
 24 26  1  0
M  END