
  SciTegic10301317112D

 37 38  0  0  0  0            999 V2000
    2.2190   -3.6788    0.0000 S   0  0
    5.5098   -3.6579    0.0000 C   0  0
   12.3126   -7.7204    0.0000 C   0  0  1  0  0  0
   13.1384   -7.6745    0.0000 C   0  0
   11.8621   -7.0239    0.0000 N   0  0
    3.0448   -3.6704    0.0000 C   0  0
   11.0280   -7.0322    0.0000 C   0  0
    5.9311   -4.3712    0.0000 N   0  0
    2.2148   -4.4963    0.0000 O   0  0
    2.2190   -2.8529    0.0000 O   0  0
    7.1740   -5.0802    0.0000 C   0  0
    9.3095   -5.6558    0.0000 C   0  0
    4.6840   -3.6662    0.0000 C   0  0
    1.3931   -3.6704    0.0000 N   0  0
    9.7892   -6.3232    0.0000 N   0  0
    7.9999   -5.0719    0.0000 N   0  0
   11.9372   -8.4503    0.0000 C   0  0
    5.9227   -2.9447    0.0000 O   0  0
   13.5138   -6.9446    0.0000 O   0  0
   10.6275   -7.7496    0.0000 O   0  0
    6.7611   -5.7976    0.0000 O   0  0
    9.6390   -4.8967    0.0000 O   0  0
    3.4452   -2.9572    0.0000 C   0  0
    3.4577   -4.3837    0.0000 C   0  0
    4.2794   -4.3837    0.0000 C   0  0
    4.2669   -2.9530    0.0000 C   0  0
    6.7569   -4.3670    0.0000 C   0  0
   10.6150   -6.3189    0.0000 C   0  0
    8.4879   -5.7434    0.0000 C   0  0
   12.3793   -9.1468    0.0000 C   0  0
   13.5806   -8.3710    0.0000 O   0  0
   13.2803  -10.5274    0.0000 C   0  0
   13.7265  -11.2240    0.0000 N   0  0
   12.0040   -9.8768    0.0000 C   0  0
   13.2052   -9.1010    0.0000 C   0  0
   13.6556   -9.7892    0.0000 C   0  0
   12.4502  -10.5650    0.0000 C   0  0
  2 13  1  0
  3  5  1  0
  4  3  1  0
  5  7  1  0
  6  1  1  0
  7 28  1  0
  8  2  1  0
  9  1  2  0
 10  1  2  0
 11 27  1  0
 12 29  1  0
 13 25  2  0
 14  1  1  0
 15 12  1  0
 16 11  1  0
  3 17  1  6
 18  2  2  0
 19  4  2  0
 20  7  2  0
 21 11  2  0
 22 12  2  0
 23  6  1  0
 24  6  2  0
 25 24  1  0
 26 23  2  0
 27  8  1  0
 28 15  1  0
 29 16  1  0
 30 17  1  0
 31  4  1  0
 32 36  2  0
 33 32  1  0
 34 30  1  0
 35 30  2  0
 36 35  1  0
 37 34  2  0
 13 26  1  0
 32 37  1  0
M  END