
          11280716012D 1   1.00000     0.00000     0

111117  0     1  0            999 V2000
   -0.0458  -24.7292    0.0000 N   0  0  3  0  0  0           0  0  0
   -0.5167  -23.3042    0.0000 C   0  0  0  0  0  0           0  0  0
   -2.4208  -25.9292    0.0000 C   0  0  0  0  0  0           0  0  0
    1.7125   -1.2000    0.0000 C   0  0  0  0  0  0           0  0  0
    2.6083   -8.0208    0.0000 C   0  0  0  0  0  0           0  0  0
   -0.9208  -25.9292    0.0000 C   0  0  2  0  0  0           0  0  0
    7.3917  -18.2792    0.0000 N   0  0  0  0  0  0           0  0  0
    4.1292   -4.3500    0.0000 C   0  0  0  0  0  0           0  0  0
    4.1750   -0.3792    0.0000 C   0  0  0  0  0  0           0  0  0
    1.0000  -19.6333    0.0000 C   0  0  0  0  0  0           0  0  0
    5.6917    3.2917    0.0000 C   0  0  0  0  0  0           0  0  0
    3.7917    5.1417    0.0000 N   0  0  0  0  0  0           0  0  0
    1.0458  -15.6625    0.0000 C   0  0  0  0  0  0           0  0  0
    2.5625  -11.9917    0.0000 C   0  0  0  0  0  0           0  0  0
    3.1333   -5.4750    0.0000 N   0  0  0  0  0  0           0  0  0
    3.6042   -6.9000    0.0000 C   0  0  1  0  0  0           0  0  0
    8.3833  -17.1542    0.0000 C   0  0  0  0  0  0           0  0  0
    1.7125    1.2042    0.0000 N   0  0  0  0  0  0           0  0  0
    4.6500   -1.8042    0.0000 N   0  0  0  0  0  0           0  0  0
    4.6958    2.1667    0.0000 N   0  0  0  0  0  0           0  0  0
    1.5208  -17.0875    0.0000 N   0  0  0  0  0  0           0  0  0
    0.0042  -20.7583    0.0000 N   0  0  0  0  0  0           0  0  0
   -3.1708  -24.6292    0.0000 N   0  0  0  0  0  0           0  0  0
    2.5875    0.0208    0.0000 C   0  0  0  0  0  0           0  0  0
    3.0833   -9.4458    0.0000 N   0  0  0  0  0  0           0  0  0
    1.5667  -13.1167    0.0000 N   0  0  0  0  0  0           0  0  0
    7.8708  -19.7042    0.0000 C   0  0  0  0  0  0           0  0  0
    5.1708    0.7417    0.0000 C   0  0  1  0  0  0           0  0  0
    3.6542   -2.9292    0.0000 C   0  0  1  0  0  0           0  0  0
    0.5250  -18.2083    0.0000 C   0  0  1  0  0  0           0  0  0
    9.4375  -12.0625    0.0000 C   0  0  0  0  0  0           0  0  0
   -3.7375   -5.3833    0.0000 C   0  0  0  0  0  0           0  0  0
    0.4792  -22.1833    0.0000 C   0  0  1  0  0  0           0  0  0
    9.7083    2.7875    0.0000 N   0  0  0  0  0  0           0  0  0
    5.2167    4.7083    0.0000 C   0  0  1  0  0  0           0  0  0
    9.1750  -16.2500    0.0000 N   0  0  0  0  0  0           0  0  0
    3.7792    6.6375    0.0000 C   0  0  0  0  0  0           0  0  0
    0.2917   -0.7458    0.0000 C   0  0  0  0  0  0           0  0  0
    2.1833   -2.6250    0.0000 C   0  0  0  0  0  0           0  0  0
   -5.2083   -5.0792    0.0000 C   0  0  0  0  0  0           0  0  0
   10.9083  -12.3583    0.0000 C   0  0  0  0  0  0           0  0  0
   -5.4208  -23.3292    0.0000 C   0  0  0  0  0  0           0  0  0
    7.6333    1.5708    0.0000 C   0  0  0  0  0  0           0  0  0
    6.6417    0.4458    0.0000 C   0  0  0  0  0  0           0  0  0
    7.2917    3.0167    0.0000 N   0  0  0  0  0  0           0  0  0
    2.0875  -10.5667    0.0000 C   0  0  1  0  0  0           0  0  0
    2.0417  -14.5417    0.0000 C   0  0  2  0  0  0           0  0  0
    8.5833    3.7792    0.0000 C   0  0  0  0  0  0           0  0  0
    0.2917    0.7500    0.0000 C   0  0  0  0  0  0           0  0  0
   -4.6708  -24.6292    0.0000 C   0  0  1  0  0  0           0  0  0
    9.1125    1.4125    0.0000 C   0  0  0  0  0  0           0  0  0
   -1.6958  -23.0625    0.0000 O   0  0  0  0  0  0           0  0  0
   -3.0208  -26.9667    0.0000 O   0  0  0  0  0  0           0  0  0
    1.4333   -7.7792    0.0000 O   0  0  0  0  0  0           0  0  0
    5.3042   -4.5917    0.0000 O   0  0  0  0  0  0           0  0  0
    2.1750  -19.8750    0.0000 O   0  0  0  0  0  0           0  0  0
    3.1958   -0.1792    0.0000 O   0  0  0  0  0  0           0  0  0
    6.6708    3.0875    0.0000 O   0  0  0  0  0  0           0  0  0
   -0.1292  -15.4208    0.0000 O   0  0  0  0  0  0           0  0  0
    3.7375  -12.2333    0.0000 O   0  0  0  0  0  0           0  0  0
    9.0542  -10.9250    0.0000 O   0  0  0  0  0  0           0  0  0
   -2.9417   -4.4875    0.0000 O   0  0  0  0  0  0           0  0  0
   -6.6167  -23.3292    0.0000 O   0  0  0  0  0  0           0  0  0
   12.8500  -14.0833    0.0000 N   0  0  0  0  0  0           0  0  0
   -7.6667   -5.9000    0.0000 N   0  0  0  0  0  0           0  0  0
   -0.9458  -17.9042    0.0000 C   0  0  0  0  0  0           0  0  0
    2.8042    7.3375    0.0000 O   0  0  0  0  0  0           0  0  0
    6.0958    5.9125    0.0000 C   0  0  0  0  0  0           0  0  0
    9.3417  -20.0000    0.0000 N   0  0  0  0  0  0           0  0  0
    6.8792  -20.8250    0.0000 N   0  0  0  0  0  0           0  0  0
    8.4417  -13.1833    0.0000 N   0  0  0  0  0  0           0  0  0
   -3.2667   -6.8083    0.0000 N   0  0  0  0  0  0           0  0  0
   -4.8208  -22.2875    0.0000 N   0  0  0  0  0  0           0  0  0
    1.3792  -25.1583    0.0000 C   0  0  0  0  0  0           0  0  0
    5.2000    7.1167    0.0000 C   0  0  0  0  0  0           0  0  0
   -6.2000   -6.2000    0.0000 C   0  0  0  0  0  0           0  0  0
   11.3833  -13.7833    0.0000 C   0  0  0  0  0  0           0  0  0
    5.0750   -7.1958    0.0000 C   0  0  0  0  0  0           0  0  0
   -0.0292  -27.1333    0.0000 C   0  0  0  0  0  0           0  0  0
   -5.6833   -3.6542    0.0000 C   0  0  0  0  0  0           0  0  0
   11.9042  -11.2375    0.0000 C   0  0  0  0  0  0           0  0  0
    5.8708   -6.2958    0.0000 O   0  0  0  0  0  0           0  0  0
    1.3917  -26.6583    0.0000 C   0  0  0  0  0  0           0  0  0
    1.9500  -22.4792    0.0000 C   0  0  0  0  0  0           0  0  0
   -1.0042   -1.5125    0.0000 C   0  0  0  0  0  0           0  0  0
   -1.4167  -16.4833    0.0000 C   0  0  3  0  0  0           0  0  0
   13.8458  -12.9625    0.0000 C   0  0  0  0  0  0           0  0  0
   -8.1417   -4.4792    0.0000 C   0  0  0  0  0  0           0  0  0
    3.5125  -14.8375    0.0000 C   0  0  0  0  0  0           0  0  0
    0.6208  -10.2667    0.0000 C   0  0  0  0  0  0           0  0  0
   -5.2708  -25.6667    0.0000 C   0  0  0  0  0  0           0  0  0
   -1.0042    1.5167    0.0000 C   0  0  0  0  0  0           0  0  0
   10.3375  -18.8750    0.0000 C   0  0  0  0  0  0           0  0  0
    5.4083  -20.5292    0.0000 C   0  0  0  0  0  0           0  0  0
    6.9708  -12.8875    0.0000 C   0  0  0  0  0  0           0  0  0
   -1.7958   -7.1125    0.0000 C   0  0  0  0  0  0           0  0  0
    2.9417  -21.3542    0.0000 C   0  0  0  0  0  0           0  0  0
    0.1458   -8.8417    0.0000 C   0  0  0  0  0  0           0  0  0
    4.5083  -13.7125    0.0000 C   0  0  0  0  0  0           0  0  0
   11.8083  -19.1750    0.0000 C   0  0  0  0  0  0           0  0  0
    4.4125  -21.6542    0.0000 C   0  0  0  0  0  0           0  0  0
   -1.3250   -8.5375    0.0000 C   0  0  0  0  0  0           0  0  0
    5.9792  -14.0125    0.0000 C   0  0  0  0  0  0           0  0  0
   -7.1458   -3.3542    0.0000 C   0  0  0  0  0  0           0  0  0
   13.3708  -11.5375    0.0000 C   0  0  0  0  0  0           0  0  0
   12.8042  -18.0500    0.0000 C   0  0  0  0  0  0           0  0  0
   -2.5917  -16.2375    0.0000 C   0  0  0  0  0  0           0  0  0
   -0.6208  -15.5833    0.0000 C   0  0  0  0  0  0           0  0  0
   -2.3167   -0.7458    0.0000 C   0  0  0  0  0  0           0  0  0
   13.9792  -18.2875    0.0000 C   0  0  0  0  0  0           0  0  0
   -2.3167    0.7500    0.0000 C   0  0  0  0  0  0           0  0  0
  2  1  1  0     0  0
  6  3  1  1     0  0
  4 39  1  0     0  0
  5 25  1  0     0  0
  6  1  1  0     0  0
  7 27  1  0     0  0
  8 15  1  0     0  0
  9 19  1  0     0  0
 10 22  1  0     0  0
 11 20  1  0     0  0
 12 35  1  0     0  0
 13 21  1  0     0  0
 14 26  1  0     0  0
 15 16  1  0     0  0
 16  5  1  0     0  0
 17  7  1  0     0  0
 18 24  1  0     0  0
 19 29  1  0     0  0
 20 28  1  0     0  0
 21 30  1  0     0  0
 22 33  1  0     0  0
 23  3  1  0     0  0
 24  4  2  0     0  0
 25 46  1  0     0  0
 26 47  1  0     0  0
 27 70  1  0     0  0
 28  9  1  0     0  0
 29  8  1  0     0  0
 30 10  1  0     0  0
 31 71  1  0     0  0
 32 72  1  0     0  0
 33  2  1  0     0  0
 34 51  1  0     0  0
 35 11  1  1     0  0
 36 17  3  0     0  0
 37 12  1  0     0  0
 38  4  1  0     0  0
 29 39  1  6     0  0
 40 32  1  0     0  0
 41 31  1  0     0  0
 42 50  1  0     0  0
 43 44  1  0     0  0
 28 44  1  1     0  0
 45 43  1  0     0  0
 46 14  1  0     0  0
 47 13  1  0     0  0
 48 45  2  0     0  0
 49 38  1  0     0  0
 50 23  1  0     0  0
 51 43  2  0     0  0
 52  2  2  0     0  0
 53  3  2  0     0  0
 54  5  2  0     0  0
 55  8  2  0     0  0
 56 10  2  0     0  0
 57  9  2  0     0  0
 58 11  2  0     0  0
 59 13  2  0     0  0
 60 14  2  0     0  0
 61 31  2  0     0  0
 62 32  2  0     0  0
 63 42  2  0     0  0
 64 77  2  0     0  0
 65 76  2  0     0  0
 30 66  1  6     0  0
 67 37  2  0     0  0
 68 35  1  0     0  0
 69 27  2  0     0  0
 70 94  1  0     0  0
 71 95  1  0     0  0
 72 96  1  0     0  0
 73 42  1  0     0  0
 74  1  1  0     0  0
 75 68  1  0     0  0
 76 40  1  0     0  0
 77 41  1  0     0  0
 16 78  1  1     0  0
 79  6  1  0     0  0
 80 40  2  0     0  0
 81 41  2  0     0  0
 82 78  1  0     0  0
 83 74  1  0     0  0
 33 84  1  1     0  0
 85 38  2  0     0  0
 86 66  1  0     0  0
 87 64  1  0     0  0
 88 65  1  0     0  0
 47 89  1  6     0  0
 46 90  1  6     0  0
 50 91  1  6     0  0
 92 49  2  0     0  0
 93 69  1  0     0  0
 94101  1  0     0  0
 95103  1  0     0  0
 96102  1  0     0  0
 97 84  1  0     0  0
 98 90  1  0     0  0
 99 89  1  0     0  0
100 93  1  0     0  0
101 97  1  0     0  0
102 98  1  0     0  0
103 99  1  0     0  0
104 80  1  0     0  0
105 81  1  0     0  0
106100  1  0     0  0
107 86  1  0     0  0
108 86  1  0     0  0
109 85  1  0     0  0
110106  1  0     0  0
111 92  1  0     0  0
 79 83  1  0     0  0
 87105  2  0     0  0
 88104  2  0     0  0
 49 18  1  0     0  0
109111  2  0     0  0
 48 34  1  0     0  0
 37 75  1  0     0  0
M  END