
  SciTegic06051315212D

  7  6  0  0  0  0            999 V2000
    4.5317  -21.7918    0.0000 C   0  0
    5.2435  -21.3832    0.0000 C   0  0
    3.8199  -21.3832    0.0000 C   0  0
    5.2435  -20.5619    0.0000 O   0  0
    5.9512  -21.7918    0.0000 N   0  0
    3.1101  -20.9716    0.0000 N   0  0
    5.9512  -22.6131    0.0000 C   0  0
  1  2  1  0
  1  3  1  0
  2  4  2  0
  2  5  1  0
  3  6  3  0
  5  7  1  0
M  END