
          11280715002D 1   1.00000     0.00000     0

 36 39  0     1  0            999 V2000
    9.8625   -7.2625    0.0000 S   0  0  3  0  0  0           0  0  0
    6.2917   -6.0042    0.0000 C   0  0  0  0  0  0           0  0  0
    5.8125   -6.6792    0.0000 N   0  0  0  0  0  0           0  0  0
    9.1500   -6.8417    0.0000 N   0  0  0  0  0  0           0  0  0
    5.8125   -5.3500    0.0000 C   0  0  0  0  0  0           0  0  0
    9.1542   -6.0167    0.0000 C   0  0  2  0  0  0           0  0  0
    7.0125   -5.6000    0.0000 C   0  0  0  0  0  0           0  0  0
    5.0292   -5.6000    0.0000 C   0  0  0  0  0  0           0  0  0
    5.0292   -6.4250    0.0000 C   0  0  0  0  0  0           0  0  0
    9.8667   -5.6125    0.0000 C   0  0  0  0  0  0           0  0  0
    7.7250   -6.0167    0.0000 N   0  0  0  0  0  0           0  0  0
    9.1417   -7.6667    0.0000 O   0  0  0  0  0  0           0  0  0
   10.0667   -8.0542    0.0000 O   0  0  0  0  0  0           0  0  0
   10.6792   -7.2625    0.0000 C   0  0  0  0  0  0           0  0  0
    8.4417   -5.6042    0.0000 C   0  0  0  0  0  0           0  0  0
    4.3167   -5.1875    0.0000 C   0  0  0  0  0  0           0  0  0
   -0.6958   -6.4125    0.0000 N   0  0  0  0  0  0           0  0  0
    7.0125   -4.7750    0.0000 O   0  0  0  0  0  0           0  0  0
    9.8667   -4.7875    0.0000 O   0  0  0  0  0  0           0  0  0
    4.3167   -6.8375    0.0000 C   0  0  0  0  0  0           0  0  0
    3.6000   -5.5917    0.0000 C   0  0  0  0  0  0           0  0  0
   10.5792   -6.0250    0.0000 O   0  0  0  0  0  0           0  0  0
    3.6042   -6.4250    0.0000 C   0  0  0  0  0  0           0  0  0
    2.8792   -5.1792    0.0000 O   0  0  0  0  0  0           0  0  0
    2.1667   -5.5917    0.0000 C   0  0  0  0  0  0           0  0  0
   -0.6875   -5.5875    0.0000 C   0  0  0  0  0  0           0  0  0
    0.0250   -6.8292    0.0000 C   0  0  0  0  0  0           0  0  0
    0.7417   -5.5917    0.0000 C   0  0  3  0  0  0           0  0  0
   11.0917   -7.9750    0.0000 C   0  0  0  0  0  0           0  0  0
   11.0917   -6.5500    0.0000 C   0  0  0  0  0  0           0  0  0
    1.4542   -5.1792    0.0000 C   0  0  0  0  0  0           0  0  0
    0.0250   -5.1792    0.0000 C   0  0  0  0  0  0           0  0  0
    0.7417   -6.4167    0.0000 C   0  0  0  0  0  0           0  0  0
   11.9125   -6.5417    0.0000 C   0  0  0  0  0  0           0  0  0
   11.9167   -7.9750    0.0000 C   0  0  0  0  0  0           0  0  0
   12.3292   -7.2625    0.0000 C   0  0  0  0  0  0           0  0  0
  2  7  1  0     0  0
  3  2  1  0     0  0
  4  1  1  0     0  0
  5  2  2  0     0  0
  6  4  1  1     0  0
  7 11  1  0     0  0
  8  5  1  0     0  0
  9  3  1  0     0  0
 10  6  1  0     0  0
 11 15  1  0     0  0
 12  1  2  0     0  0
 13  1  2  0     0  0
 14  1  1  0     0  0
 15  6  1  0     0  0
 16  8  1  0     0  0
 17 27  1  0     0  0
 18  7  2  0     0  0
 19 10  2  0     0  0
 20  9  1  0     0  0
 21 16  2  0     0  0
 22 10  1  0     0  0
 23 20  2  0     0  0
 24 21  1  0     0  0
 25 24  1  0     0  0
 26 32  1  0     0  0
 27 33  1  0     0  0
 28 31  1  0     0  0
 29 14  2  0     0  0
 30 14  1  0     0  0
 31 25  1  0     0  0
 32 28  1  0     0  0
 33 28  1  0     0  0
 34 30  2  0     0  0
 35 29  1  0     0  0
 36 34  1  0     0  0
 36 35  2  0     0  0
  8  9  2  0     0  0
 23 21  1  0     0  0
 17 26  1  0     0  0
M  END