
  SciTegic01161211252D

 23 25  0  0  0  0            999 V2000
   -5.2615    1.8326    0.0000 C   0  0
   -5.2627    1.0055    0.0000 C   0  0
   -4.5482    0.5928    0.0000 C   0  0
   -4.5500    2.2451    0.0000 C   0  0
   -3.8349    1.8361    0.0000 C   0  0
   -3.8361    1.0034    0.0000 C   0  0
   -3.1196    0.5884    0.0000 N   0  0
   -2.3972    1.0014    0.0000 C   0  0
   -2.3960    1.8341    0.0000 C   0  0
   -3.1172    2.2538    0.0000 C   0  0
   -3.1219   -0.2362    0.0000 C   0  0
   -2.4089   -0.6505    0.0000 C   0  0
   -3.1172    3.0784    0.0000 O   0  0
   -1.6807    2.2453    0.0000 C   0  0
   -0.9677    1.8312    0.0000 O   0  0
   -1.6787    3.0699    0.0000 O   0  0
   -2.4165   -1.4754    0.0000 C   0  0
   -1.7043   -1.8896    0.0000 C   0  0
   -0.9880   -1.4793    0.0000 C   0  0
   -0.9883   -0.6504    0.0000 C   0  0
   -1.7011   -0.2399    0.0000 C   0  0
   -0.2746   -1.8926    0.0000 O   0  0
   -0.2758   -2.7172    0.0000 C   0  0
  7 11  1  0
 11 12  1  0
  2  3  2  0
 10 13  2  0
  3  6  1  0
  1  2  1  0
  5  4  1  0
 14 15  1  0
 14 16  2  0
  9 14  1  0
  4  1  2  0
 12 17  2  0
  5 10  1  0
 17 18  1  0
  6  7  1  0
 18 19  2  0
  7  8  1  0
 19 20  1  0
  8  9  2  0
 20 21  2  0
 21 12  1  0
  9 10  1  0
 19 22  1  0
  5  6  2  0
 22 23  1  0
M  END