
  SciTegic10311316322D

 37 40  0  0  0  0            999 V2000
   -0.9811  -20.4371    0.0000 C   0  0
   -0.2560  -20.0433    0.0000 C   0  0
   -0.2383  -19.2216    0.0000 C   0  0
    0.4841  -18.8277    0.0000 C   0  0
    1.1901  -19.2551    0.0000 N   0  0
    1.1707  -20.0810    0.0000 C   0  0
    0.4452  -20.4792    0.0000 C   0  0
    1.9109  -18.8599    0.0000 C   0  0
    1.9277  -18.0340    0.0000 C   0  0
    2.6503  -17.6375    0.0000 C   0  0
    3.3565  -18.0658    0.0000 C   0  0
    3.3354  -18.8948    0.0000 C   0  0
    2.6124  -19.2876    0.0000 C   0  0
    1.2221  -17.6065    0.0000 F   0  0
    4.0805  -17.6702    0.0000 N   0  0
    4.7850  -18.0993    0.0000 C   0  0
    5.5090  -17.7038    0.0000 C   0  0
    4.7656  -18.9241    0.0000 O   0  0
   -1.6859  -20.0062    0.0000 C   0  0
   -1.6543  -19.1829    0.0000 C   0  0
   -2.3599  -18.7521    0.0000 C   0  0
   -3.0840  -19.1460    0.0000 C   0  0
   -3.1069  -19.9750    0.0000 C   0  0
   -2.4019  -20.4021    0.0000 C   0  0
   -1.0014  -21.2618    0.0000 C   0  0
   -1.7264  -21.6556    0.0000 O   0  0
   -0.2966  -21.6927    0.0000 N   0  0
   -0.3169  -22.5174    0.0000 C   0  0
    0.3871  -22.9482    0.0000 C   0  0
    6.2557  -18.0526    0.0000 C   0  0
    6.8220  -17.4526    0.0000 O   0  0
    6.4263  -16.7286    0.0000 N   0  0
    5.6157  -16.8812    0.0000 C   0  0
    5.0158  -16.3148    0.0000 C   0  0
    6.4104  -18.8629    0.0000 C   0  0
    0.4299  -21.2989    0.0000 C   0  0
    1.1334  -21.7297    0.0000 C   0  0
  1  2  1  0
  2  3  1  0
  2  7  1  0
  3  4  1  0
  4  5  1  0
  5  6  1  0
  6  7  1  0
  8  9  2  0
  9 10  1  0
 10 11  2  0
 11 12  1  0
 12 13  2  0
 13  8  1  0
  5  8  1  0
  9 14  1  0
 11 15  1  0
 15 16  1  0
 16 17  1  0
 16 18  2  0
  1 19  1  0
 19 20  2  0
 20 21  1  0
 21 22  2  0
 22 23  1  0
 23 24  2  0
 24 19  1  0
  1 25  1  0
 25 26  2  0
 25 27  1  0
 27 28  1  0
 28 29  1  0
 17 30  2  0
 30 31  1  0
 31 32  1  0
 32 33  2  0
 33 17  1  0
 33 34  1  0
 30 35  1  0
 27 36  1  0
 36 37  1  0
M  END