
  SciTegic12201609252D

 28 29  0  0  0  0            999 V2000
    6.4583   -2.6107    0.0000 C   0  0
    8.5552   -3.6573    0.0000 O   0  0
    8.5633   -1.5791    0.0000 O   0  0
    1.2018   -3.8920    0.0000 C   0  0
    9.1591   -2.6205    0.0000 N   0  0
    5.7127   -1.3091    0.0000 C   0  0
    1.3613   -1.5539    0.0000 O   0  0
    1.9575   -2.5953    0.0000 S   0  0
   -0.9032   -4.9237    0.0000 C   0  0
   -0.2990   -3.8869    0.0000 C   0  0
    7.9591   -2.6158    0.0000 S   0  0
    4.2127   -1.3038    0.0000 C   0  0
    6.3003   -4.9484    0.0000 F   0  0
    4.2038   -3.9020    0.0000 C   0  0
    5.7038   -3.9071    0.0000 C   0  0
    3.4641   -0.0030    0.0000 N   0  0
    4.2173    1.2991    0.0000 C   0  0
    0.7575   -2.5907    0.0000 O   0  0
    3.6003   -4.9392    0.0000 F   0  0
    6.3163   -0.2719    0.0000 F   0  0
    3.4583   -2.6004    0.0000 C   0  0
    3.3075    2.4917    0.0000 C   0  0
    3.5074    3.9783    0.0000 C   0  0
    5.7039    1.0992    0.0000 C   0  0
    6.8965    2.0090    0.0000 C   0  0
    7.0964    3.4956    0.0000 C   0  0
    6.1866    4.6882    0.0000 C   0  0
    4.7000    4.8881    0.0000 C   0  0
  7  8  2  0
 12 16  1  0
  1 11  1  0
 15 13  1  0
  6  1  1  0
 16 17  1  0
  1 15  2  0
 12  6  2  0
 11  3  2  0
  4 10  1  0
  8 18  2  0
 14 19  1  0
  2 11  2  0
  8  4  1  0
 11  5  1  0
 14 21  2  0
 21 12  1  0
 21  8  1  0
 10  9  1  0
 15 14  1  0
  6 20  1  0
 17 22  1  0
 22 23  1  0
 17 24  1  0
 24 25  1  0
 25 26  1  0
 26 27  1  0
 27 28  1  0
 28 23  1  0
M  END