
  SciTegic03291108532D

 27 29  0  0  0  0            999 V2000
   -0.5759   -0.7030    0.0000 O   0  0
   -2.0049    0.9470    0.0000 O   0  5
   -3.4338    0.9470    0.0000 O   0  0
    2.2820   -1.5280    0.0000 O   0  0
   -2.7193   -2.7655    0.0000 N   0  0
   -1.2904   -1.9405    0.0000 N   0  0
   -2.7193    0.5345    0.0000 N   0  3
   -2.7193   -4.4155    0.0000 N   0  0
   -2.7193   -1.9405    0.0000 C   0  0
   -2.0049   -1.5280    0.0000 C   0  0
   -2.7193   -0.2905    0.0000 C   0  0
   -2.0049   -0.7030    0.0000 C   0  0
   -3.4338   -1.5280    0.0000 C   0  0
   -0.5759   -1.5280    0.0000 C   0  0
   -3.4338   -0.7030    0.0000 C   0  0
    0.1386   -1.9405    0.0000 C   0  0
   -2.0049   -3.1780    0.0000 C   0  0
   -3.4338   -3.1780    0.0000 C   0  0
    0.8530   -1.5280    0.0000 C   0  0
   -2.0049   -4.0030    0.0000 C   0  0
   -3.4338   -4.0030    0.0000 C   0  0
    0.1386   -2.7655    0.0000 C   0  0
    1.5675   -1.9405    0.0000 C   0  0
    0.8530   -3.1780    0.0000 C   0  0
    1.5675   -2.7655    0.0000 C   0  0
   -2.7193   -5.2405    0.0000 C   0  0
    2.2820   -0.7030    0.0000 C   0  0
  1 14  2  0
  2  7  1  0
  3  7  2  0
  4 23  1  0
  4 27  1  0
  5  9  1  0
  5 17  1  0
  5 18  1  0
  6 10  1  0
  6 14  1  0
  7 11  1  0
  8 20  1  0
  8 21  1  0
  8 26  1  0
  9 10  1  0
  9 13  2  0
 10 12  2  0
 11 12  1  0
 11 15  2  0
 13 15  1  0
 14 16  1  0
 16 19  2  0
 16 22  1  0
 17 20  1  0
 18 21  1  0
 19 23  1  0
 22 24  2  0
 23 25  2  0
 24 25  1  0
M  CHG  2   2  -1   7   1
M  END