
  CDK    9/16/09,9:50

 38 42  0  0  0  0  0  0  0  0999 V2000
   -2.0598  -11.5583    0.0000 C   0  0  0  0  0  0  0  0  0  0  0  0
   -2.0609  -12.3857    0.0000 C   0  0  0  0  0  0  0  0  0  0  0  0
   -1.3461  -12.7985    0.0000 C   0  0  0  0  0  0  0  0  0  0  0  0
   -1.3479  -11.1455    0.0000 C   0  0  0  0  0  0  0  0  0  0  0  0
   -0.6325  -11.5547    0.0000 C   0  0  0  0  0  0  0  0  0  0  0  0
   -0.6323  -12.3857    0.0000 C   0  0  0  0  0  0  0  0  0  0  0  0
    0.1582  -12.6423    0.0000 N   0  0  0  0  0  0  0  0  0  0  0  0
    0.6465  -11.9698    0.0000 C   0  0  0  0  0  0  0  0  0  0  0  0
    0.1578  -11.2977    0.0000 N   0  0  0  0  0  0  0  0  0  0  0  0
    1.4715  -11.9695    0.0000 C   0  0  0  0  0  0  0  0  0  0  0  0
    1.8838  -11.2549    0.0000 C   0  0  0  0  0  0  0  0  0  0  0  0
    2.7088  -11.2546    0.0000 C   0  0  0  0  0  0  0  0  0  0  0  0
    3.1210  -10.5400    0.0000 C   0  0  0  0  0  0  0  0  0  0  0  0
    0.5625  -13.3542    0.0000 C   0  0  0  0  0  0  0  0  0  0  0  0
    1.3875  -13.3600    0.0000 C   0  0  0  0  0  0  0  0  0  0  0  0
    1.7922  -14.0782    0.0000 C   0  0  0  0  0  0  0  0  0  0  0  0
    2.6164  -14.0844    0.0000 C   0  0  0  0  0  0  0  0  0  0  0  0
    3.0348  -13.3723    0.0000 C   0  0  0  0  0  0  0  0  0  0  0  0
    2.6230  -12.6526    0.0000 C   0  0  0  0  0  0  0  0  0  0  0  0
    1.8001  -12.6499    0.0000 C   0  0  0  0  0  0  0  0  0  0  0  0
    3.8563  -13.3767    0.0000 C   0  0  0  0  0  0  0  0  0  0  0  0
    4.2640  -14.0951    0.0000 C   0  0  0  0  0  0  0  0  0  0  0  0
    5.0882  -14.1002    0.0000 C   0  0  0  0  0  0  0  0  0  0  0  0
    5.5057  -13.3876    0.0000 C   0  0  0  0  0  0  0  0  0  0  0  0
    5.0929  -12.6684    0.0000 C   0  0  0  0  0  0  0  0  0  0  0  0
    4.2700  -12.6668    0.0000 C   0  0  0  0  0  0  0  0  0  0  0  0
    3.8465  -14.8106    0.0000 C   0  0  0  0  0  0  0  0  0  0  0  0
    3.0215  -14.8051    0.0000 O   0  0  0  0  0  0  0  0  0  0  0  0
    4.2542  -15.5279    0.0000 O   0  0  0  0  0  0  0  0  0  0  0  0
   -2.7743  -11.1460    0.0000 N   0  0  0  0  0  0  0  0  0  0  0  0
   -3.4887  -11.5586    0.0000 C   0  0  0  0  0  0  0  0  0  0  0  0
   -4.2033  -11.1463    0.0000 C   0  0  0  0  0  0  0  0  0  0  0  0
   -3.4885  -12.3836    0.0000 O   0  0  0  0  0  0  0  0  0  0  0  0
   -4.2040  -10.3207    0.0000 C   0  0  0  0  0  0  0  0  0  0  0  0
   -4.9177   -9.9085    0.0000 C   0  0  0  0  0  0  0  0  0  0  0  0
   -5.6253  -10.3212    0.0000 C   0  0  0  0  0  0  0  0  0  0  0  0
   -5.6281  -11.1504    0.0000 C   0  0  0  0  0  0  0  0  0  0  0  0
   -4.9159  -11.5590    0.0000 C   0  0  0  0  0  0  0  0  0  0  0  0
  8  9  2  0  0  0  0 
 18 19  1  0  0  0  0 
  9  5  1  0  0  0  0 
 19 20  2  0  0  0  0 
 20 15  1  0  0  0  0 
  4  1  1  0  0  0  0 
  8 10  1  0  0  0  0 
 21 22  2  0  0  0  0 
  5  6  1  0  0  0  0 
 22 23  1  0  0  0  0 
 10 11  1  0  0  0  0 
 23 24  2  0  0  0  0 
 24 25  1  0  0  0  0 
 11 12  1  0  0  0  0 
 25 26  2  0  0  0  0 
 26 21  1  0  0  0  0 
 18 21  1  0  0  0  0 
  2  3  1  0  0  0  0 
 12 13  1  0  0  0  0 
  3  6  2  0  0  0  0 
 27 28  1  0  0  0  0 
 27 29  2  0  0  0  0 
 22 27  1  0  0  0  0 
  7 14  1  0  0  0  0 
  1 30  1  0  0  0  0 
  1  2  2  0  0  0  0 
 30 31  1  0  0  0  0 
 14 15  1  0  0  0  0 
 31 32  1  0  0  0  0 
  5  4  2  0  0  0  0 
 31 33  2  0  0  0  0 
 15 16  2  0  0  0  0 
 32 34  2  0  0  0  0 
  6  7  1  0  0  0  0 
 34 35  1  0  0  0  0 
 16 17  1  0  0  0  0 
 35 36  2  0  0  0  0 
  7  8  1  0  0  0  0 
 36 37  1  0  0  0  0 
 17 18  2  0  0  0  0 
 37 38  2  0  0  0  0 
 38 32  1  0  0  0  0 
M  END