
  SciTegic10191216002D

 32 37  0  0  0  0            999 V2000
    3.7860  -19.3204    0.0000 C   0  0
    4.4274  -18.6365    0.0000 C   0  0
    4.5907  -19.0953    0.0000 C   0  0
    5.1391  -18.8992    0.0000 C   0  0
    5.3437  -19.3982    0.0000 C   0  0
    5.8872  -18.7136    0.0000 C   0  0
    4.5839  -18.2466    0.0000 C   0  0
    5.1448  -17.5843    0.0000 C   0  0
    4.4230  -17.8408    0.0000 C   0  0
    5.8931  -17.8944    0.0000 C   0  0
    5.1396  -16.7569    0.0000 C   0  0
    5.8517  -16.3398    0.0000 N   0  0
    6.5691  -16.7479    0.0000 C   0  0
    6.5743  -17.5732    0.0000 O   0  0
    7.2813  -16.3307    0.0000 C   0  0
    7.9959  -16.7394    0.0000 C   0  0
    8.7076  -16.3229    0.0000 C   0  0
    8.7028  -15.4968    0.0000 C   0  0
    7.9804  -15.0888    0.0000 C   0  0
    7.2717  -15.5077    0.0000 C   0  0
    7.9723  -14.2635    0.0000 C   0  0
    8.6830  -13.8438    0.0000 N   0  0
    9.4010  -14.2515    0.0000 C   0  0
   10.1095  -13.8353    0.0000 C   0  0
    9.3870  -12.6018    0.0000 C   0  0
    8.6722  -13.0197    0.0000 C   0  0
    8.0000  -17.5648    0.0000 C   0  0
   10.0959  -12.1842    0.0000 C   0  0
   10.8212  -13.4180    0.0000 C   0  0
   10.8142  -12.5906    0.0000 N   0  0
    9.3914  -13.4222    0.0000 O   0  0
    7.2535  -13.8579    0.0000 O   0  0
 13 15  1  0
  4  6  1  0
 15 16  2  0
  5  6  1  0
 16 17  1  0
  7  8  1  0
 17 18  2  0
  3  7  1  0
 18 19  1  0
  2  9  1  0
 19 20  2  0
 20 15  1  0
  6 10  1  0
 19 21  1  0
 10  8  1  0
 21 22  1  0
 22 23  1  0
  8  9  1  0
  8 11  1  0
  1  2  1  0
 22 26  1  0
 24 23  1  0
 25 26  1  0
 11 12  1  0
 16 27  1  0
  1  3  1  0
 25 28  1  0
 12 13  1  0
 24 29  1  0
 29 30  1  0
  2  4  1  0
 28 30  1  0
 13 14  2  0
 24 31  1  0
 25 31  1  0
  3  5  1  0
 21 32  2  0
M  END