
          08180812472D 1   1.00000     0.00000     0

 32 36  0     0  0            999 V2000
    4.9973  -10.4305    0.0000 N   0  0  3  0  0  0           0  0  0
    5.8901   -9.4364    0.0000 C   0  0  0  0  0  0           0  0  0
    5.0848   -9.6114    0.0000 N   0  0  3  0  0  0           0  0  0
    6.3043  -10.1529    0.0000 C   0  0  0  0  0  0           0  0  0
    5.7483  -10.7688    0.0000 C   0  0  0  0  0  0           0  0  0
    6.0023  -11.5538    0.0000 N   0  0  0  0  0  0           0  0  0
    6.8125  -11.7294    0.0000 C   0  0  0  0  0  0           0  0  0
    7.3684  -11.1136    0.0000 C   0  0  0  0  0  0           0  0  0
    7.1142  -10.3221    0.0000 C   0  0  0  0  0  0           0  0  0
    4.2817  -10.8409    0.0000 C   0  0  0  0  0  0           0  0  0
    4.2792  -11.6659    0.0000 C   0  0  0  0  0  0           0  0  0
    3.5650  -12.0732    0.0000 C   0  0  0  0  0  0           0  0  0
    3.5622  -12.8975    0.0000 C   0  0  0  0  0  0           0  0  0
    4.2760  -13.3129    0.0000 C   0  0  0  0  0  0           0  0  0
    4.9941  -12.8981    0.0000 C   0  0  0  0  0  0           0  0  0
    4.9933  -12.0752    0.0000 C   0  0  0  0  0  0           0  0  0
    4.2750  -14.1333    0.0000 C   0  0  0  0  0  0           0  0  0
    3.5582  -14.5441    0.0000 C   0  0  0  0  0  0           0  0  0
    3.5565  -15.3683    0.0000 C   0  0  0  0  0  0           0  0  0
    4.2709  -15.7828    0.0000 C   0  0  0  0  0  0           0  0  0
    4.9884  -15.3670    0.0000 C   0  0  0  0  0  0           0  0  0
    4.9865  -14.5441    0.0000 C   0  0  0  0  0  0           0  0  0
    5.7005  -14.1308    0.0000 C   0  0  0  0  0  0           0  0  0
    6.4522  -14.4636    0.0000 N   0  0  0  0  0  0           0  0  0
    7.0035  -13.8499    0.0000 N   0  0  0  0  0  0           0  0  0
    6.5902  -13.1358    0.0000 N   0  0  0  0  0  0           0  0  0
    5.7834  -13.3084    0.0000 N   0  0  0  0  0  0           0  0  0
    4.4709   -9.0603    0.0000 C   0  0  0  0  0  0           0  0  0
    4.6412   -8.2530    0.0000 C   0  0  0  0  0  0           0  0  0
    6.2237   -8.6819    0.0000 O   0  0  0  0  0  0           0  0  0
    4.0273   -7.7019    0.0000 C   0  0  0  0  0  0           0  0  0
    4.1977   -6.8947    0.0000 C   0  0  0  0  0  0           0  0  0
  4  9  1  0     0  0
 15 16  2  0     0  0
 16 11  1  0     0  0
  5  6  1  0     0  0
  6  7  2  0     0  0
 17 18  2  0     0  0
  7  8  1  0     0  0
 18 19  1  0     0  0
  8  9  2  0     0  0
 19 20  2  0     0  0
  1  5  1  0     0  0
 20 21  1  0     0  0
  1 10  1  0     0  0
 21 22  2  0     0  0
 22 17  1  0     0  0
 14 17  1  0     0  0
 22 23  1  0     0  0
 23 24  2  0     0  0
 10 11  1  0     0  0
  4  2  1  0     0  0
 11 12  2  0     0  0
  2  3  1  0     0  0
 24 25  1  0     0  0
 25 26  1  0     0  0
 26 27  2  0     0  0
 27 23  1  0     0  0
 12 13  1  0     0  0
  3 28  1  0     0  0
  3  1  1  0     0  0
 28 29  1  0     0  0
 13 14  2  0     0  0
  2 30  2  0     0  0
  4  5  2  0     0  0
 29 31  1  0     0  0
 14 15  1  0     0  0
 31 32  1  0     0  0
M  END