
          11280715072D 1   1.00000     0.00000     0

 42 46  0     0  0            999 V2000
    8.2292   -0.7375    0.0000 C   0  0  0  0  0  0           0  0  0
    2.6042   -4.1667    0.0000 C   0  0  0  0  0  0           0  0  0
    8.2542   -1.5542    0.0000 C   0  0  0  0  0  0           0  0  0
    2.5792   -3.3500    0.0000 C   0  0  0  0  0  0           0  0  0
    8.9292   -0.3042    0.0000 C   0  0  0  0  0  0           0  0  0
    9.6542   -0.7000    0.0000 C   0  0  0  0  0  0           0  0  0
    1.9042   -4.6042    0.0000 C   0  0  0  0  0  0           0  0  0
    1.1542   -3.3792    0.0000 C   0  0  0  0  0  0           0  0  0
    8.9750   -1.9542    0.0000 C   0  0  0  0  0  0           0  0  0
    1.1750   -4.2042    0.0000 C   0  0  0  0  0  0           0  0  0
    9.6750   -1.5250    0.0000 C   0  0  0  0  0  0           0  0  0
    1.8542   -2.9542    0.0000 C   0  0  0  0  0  0           0  0  0
    7.5500   -1.9917    0.0000 O   0  0  0  0  0  0           0  0  0
    3.2875   -2.9167    0.0000 O   0  0  0  0  0  0           0  0  0
    0.3917   -4.4792    0.0000 O   0  0  0  0  0  0           0  0  0
   10.4667   -1.7625    0.0000 O   0  0  0  0  0  0           0  0  0
   10.4375   -0.4292    0.0000 C   0  0  0  0  0  0           0  0  0
    0.3625   -3.1417    0.0000 C   0  0  0  0  0  0           0  0  0
   -0.1083   -3.8250    0.0000 C   0  0  0  0  0  0           0  0  0
   10.9375   -1.0875    0.0000 C   0  0  0  0  0  0           0  0  0
    7.5042   -0.3417    0.0000 C   0  0  3  0  0  0           0  0  0
    3.3250   -4.5625    0.0000 C   0  0  3  0  0  0           0  0  0
    8.9042    0.5208    0.0000 O   0  0  0  0  0  0           0  0  0
    1.9292   -5.4250    0.0000 O   0  0  0  0  0  0           0  0  0
    8.9917   -2.7792    0.0000 O   0  0  0  0  0  0           0  0  0
    1.8417   -2.1292    0.0000 O   0  0  0  0  0  0           0  0  0
    4.0042   -3.3167    0.0000 C   0  0  0  0  0  0           0  0  0
    6.8250   -1.5917    0.0000 C   0  0  0  0  0  0           0  0  0
    6.1167   -2.0292    0.0000 C   0  0  0  0  0  0           0  0  0
    4.7125   -2.8875    0.0000 C   0  0  0  0  0  0           0  0  0
    5.4375   -3.2792    0.0000 C   0  0  0  0  0  0           0  0  0
    5.3917   -1.6292    0.0000 C   0  0  0  0  0  0           0  0  0
    4.6917   -2.0667    0.0000 C   0  0  0  0  0  0           0  0  0
    6.1417   -2.8542    0.0000 C   0  0  0  0  0  0           0  0  0
    3.3500   -5.3875    0.0000 O   0  0  0  0  0  0           0  0  0
    7.4792    0.4833    0.0000 O   0  0  0  0  0  0           0  0  0
    4.0292   -4.1292    0.0000 C   0  0  0  0  0  0           0  0  0
    6.8000   -0.7750    0.0000 C   0  0  0  0  0  0           0  0  0
    2.6417   -5.8167    0.0000 C   0  0  0  0  0  0           0  0  0
    8.1875    0.9208    0.0000 C   0  0  0  0  0  0           0  0  0
    9.7167   -3.1667    0.0000 C   0  0  0  0  0  0           0  0  0
    1.1167   -1.7292    0.0000 C   0  0  0  0  0  0           0  0  0
  2  4  1  0     0  0
  3  1  1  0     0  0
  4 14  1  0     0  0
  5  1  2  0     0  0
  6  5  1  0     0  0
  7  2  2  0     0  0
  8 12  1  0     0  0
  9  3  2  0     0  0
 10  8  2  0     0  0
 11  6  2  0     0  0
 12  4  2  0     0  0
 13  3  1  0     0  0
 14 27  1  0     0  0
 15 10  1  0     0  0
 16 11  1  0     0  0
 17  6  1  0     0  0
 18  8  1  0     0  0
 19 18  2  0     0  0
 20 17  2  0     0  0
 21  1  1  0     0  0
 22  2  1  0     0  0
 23  5  1  0     0  0
 24  7  1  0     0  0
 25  9  1  0     0  0
 26 12  1  0     0  0
 27 30  1  0     0  0
 28 13  1  0     0  0
 29 28  1  0     0  0
 30 31  2  0     0  0
 31 34  1  0     0  0
 32 29  1  0     0  0
 33 32  2  0     0  0
 34 29  2  0     0  0
 22 35  1  0     0  0
 21 36  1  0     0  0
 37 22  1  0     0  0
 38 21  1  0     0  0
 39 24  1  0     0  0
 40 23  1  0     0  0
 41 25  1  0     0  0
 42 26  1  0     0  0
 11  9  1  0     0  0
 20 16  1  0     0  0
 30 33  1  0     0  0
 10  7  1  0     0  0
 15 19  1  0     0  0
M  END