
  SciTegic11081110012D

 22 24  0  0  0  0            999 V2000
    3.9091  -10.5054    0.0000 C   0  0
    3.1978  -10.9203    0.0000 C   0  0
    3.1978  -11.7458    0.0000 N   0  0
    3.9091  -12.1565    0.0000 C   0  0
    4.6246  -11.7458    0.0000 C   0  0
    4.6246  -10.9203    0.0000 C   0  0
    2.4824  -12.1565    0.0000 C   0  0
    1.7669  -11.7458    0.0000 C   0  0
    1.0514  -12.1565    0.0000 C   0  0
    0.3359  -11.7458    0.0000 O   0  0
   -0.3795  -12.1565    0.0000 C   0  0
   -1.1328  -11.8255    0.0000 C   0  0
   -1.6823  -12.4400    0.0000 C   0  0
   -1.2717  -13.1556    0.0000 O   0  0
   -0.4641  -12.9804    0.0000 N   0  0
   -2.5075  -12.4321    0.0000 C   0  0
   -2.4925  -11.0025    0.0000 C   0  0
   -2.8971  -10.2853    0.0000 C   0  0
   -4.1425  -10.9847    0.0000 C   0  0
   -3.7405  -11.7081    0.0000 C   0  0
   -3.7230  -10.2734    0.0000 C   0  0
   -2.9155  -11.7128    0.0000 N   0  0
 10 11  1  0
 11 12  1  0
  1  2  1  0
  1  6  1  0
  2  3  1  0
 12 13  2  0
 13 14  1  0
 14 15  1  0
 15 11  2  0
  3  4  1  0
 13 16  1  0
  4  5  1  0
 16 22  1  0
 22 17  1  0
  5  6  1  0
  3  7  1  0
  7  8  1  0
  8  9  1  0
  9 10  1  0
 22 20  1  0
 17 18  1  0
 18 21  1  0
 21 19  1  0
 19 20  1  0
M  END