
  Mrv0541 06141614552D          

 27 29  0  0  0  0            999 V2000
   -7.3929    0.9321    0.0000 C   0  0  0  0  0  0  0  0  0  0  0  0
   -8.1074    0.5196    0.0000 C   0  0  0  0  0  0  0  0  0  0  0  0
   -8.1074   -0.3054    0.0000 C   0  0  0  0  0  0  0  0  0  0  0  0
   -7.3929   -0.7179    0.0000 C   0  0  0  0  0  0  0  0  0  0  0  0
   -6.6784   -0.3054    0.0000 C   0  0  0  0  0  0  0  0  0  0  0  0
   -6.6784    0.5196    0.0000 C   0  0  0  0  0  0  0  0  0  0  0  0
   -5.9639    0.9322    0.0000 N   0  0  0  0  0  0  0  0  0  0  0  0
   -5.2494    0.5197    0.0000 C   0  0  0  0  0  0  0  0  0  0  0  0
   -5.2494   -0.3053    0.0000 N   0  0  0  0  0  0  0  0  0  0  0  0
   -5.9639   -0.7178    0.0000 C   0  0  0  0  0  0  0  0  0  0  0  0
   -4.5349    0.9322    0.0000 C   0  0  0  0  0  0  0  0  0  0  0  0
   -3.8204    0.5197    0.0000 C   0  0  0  0  0  0  0  0  0  0  0  0
   -3.1060    0.9322    0.0000 C   0  0  0  0  0  0  0  0  0  0  0  0
   -3.1060    1.7572    0.0000 C   0  0  0  0  0  0  0  0  0  0  0  0
   -3.8205    2.1697    0.0000 C   0  0  0  0  0  0  0  0  0  0  0  0
   -4.5350    1.7572    0.0000 C   0  0  0  0  0  0  0  0  0  0  0  0
   -2.3915    0.5197    0.0000 C   0  0  0  0  0  0  0  0  0  0  0  0
   -2.3915    2.1697    0.0000 O   0  0  0  0  0  0  0  0  0  0  0  0
   -3.8205    2.9947    0.0000 C   0  0  0  0  0  0  0  0  0  0  0  0
   -1.6771    1.7572    0.0000 C   0  0  0  0  0  0  0  0  0  0  0  0
   -0.9626    2.1697    0.0000 C   0  0  0  0  0  0  0  0  0  0  0  0
   -0.2481    1.7572    0.0000 O   0  0  0  0  0  0  0  0  0  0  0  0
   -5.9639   -1.5428    0.0000 O   0  0  0  0  0  0  0  0  0  0  0  0
   -7.3929   -1.5429    0.0000 O   0  0  0  0  0  0  0  0  0  0  0  0
   -6.6784   -1.9554    0.0000 C   0  0  0  0  0  0  0  0  0  0  0  0
   -8.8218    0.9321    0.0000 O   0  0  0  0  0  0  0  0  0  0  0  0
   -9.5363    0.5197    0.0000 C   0  0  0  0  0  0  0  0  0  0  0  0
  1  2  2  0  0  0  0
  1  6  1  0  0  0  0
  2  3  1  0  0  0  0
  3  4  2  0  0  0  0
  4  5  1  0  0  0  0
 10  5  1  0  0  0  0
  5  6  2  0  0  0  0
  6  7  1  0  0  0  0
  7  8  2  0  0  0  0
  8  9  1  0  0  0  0
  9 10  1  0  0  0  0
  8 11  1  0  0  0  0
 11 12  1  0  0  0  0
 11 16  2  0  0  0  0
 12 13  2  0  0  0  0
 13 14  1  0  0  0  0
 14 15  2  0  0  0  0
 15 16  1  0  0  0  0
 13 17  1  0  0  0  0
 14 18  1  0  0  0  0
 15 19  1  0  0  0  0
 18 20  1  0  0  0  0
 20 21  1  0  0  0  0
 21 22  1  0  0  0  0
 10 23  2  0  0  0  0
  4 24  1  0  0  0  0
 24 25  1  0  0  0  0
  2 26  1  0  0  0  0
 26 27  1  0  0  0  0
M  END