
          11280715032D 1   1.00000     0.00000     0

 33 35  0     1  0            999 V2000
    0.2375   -6.0167    0.0000 C   0  0  0  0  0  0           0  0  0
    0.3917   -5.2125    0.0000 N   0  0  0  0  0  0           0  0  0
    1.5542   -5.8417    0.0000 N   0  0  0  0  0  0           0  0  0
    1.2125   -5.1042    0.0000 C   0  0  0  0  0  0           0  0  0
    0.9542   -6.4125    0.0000 C   0  0  0  0  0  0           0  0  0
   -0.5083   -6.3750    0.0000 C   0  0  0  0  0  0           0  0  0
   10.1542   -0.6167    0.0000 C   0  0  0  0  0  0           0  0  0
    9.7250    0.0833    0.0000 C   0  0  0  0  0  0           0  0  0
    9.7542   -1.3417    0.0000 C   0  0  0  0  0  0           0  0  0
   -0.5708   -7.1875    0.0000 O   0  0  0  0  0  0           0  0  0
    1.6042   -4.3792    0.0000 C   0  0  0  0  0  0           0  0  0
    8.9000    0.0583    0.0000 C   0  0  0  0  0  0           0  0  0
    4.8917   -4.3125    0.0000 O   0  0  0  0  0  0           0  0  0
    4.0667   -4.3292    0.0000 C   0  0  0  0  0  0           0  0  0
    2.4167   -4.3667    0.0000 C   0  0  0  0  0  0           0  0  0
    8.9292   -1.3667    0.0000 C   0  0  0  0  0  0           0  0  0
    6.1042   -3.5667    0.0000 C   0  0  1  0  0  0           0  0  0
    5.2917   -3.5875    0.0000 C   0  0  0  0  0  0           0  0  0
    8.5042   -0.6667    0.0000 C   0  0  0  0  0  0           0  0  0
   10.9750   -0.6042    0.0000 O   0  0  0  0  0  0           0  0  0
    7.3292   -2.8292    0.0000 N   0  0  0  0  0  0           0  0  0
    3.6417   -3.6292    0.0000 C   0  0  0  0  0  0           0  0  0
    3.6750   -5.0542    0.0000 C   0  0  0  0  0  0           0  0  0
   10.1167    0.7958    0.0000 O   0  0  0  0  0  0           0  0  0
    2.8500   -5.0750    0.0000 C   0  0  0  0  0  0           0  0  0
    2.8167   -3.6417    0.0000 C   0  0  0  0  0  0           0  0  0
    6.5375   -4.2750    0.0000 O   0  0  0  0  0  0           0  0  0
    6.5042   -2.8500    0.0000 C   0  0  0  0  0  0           0  0  0
   -1.1833   -5.9000    0.0000 C   0  0  0  0  0  0           0  0  0
    7.7125   -2.1125    0.0000 C   0  0  0  0  0  0           0  0  0
    8.5375   -2.0792    0.0000 C   0  0  0  0  0  0           0  0  0
   11.4042   -1.3042    0.0000 C   0  0  0  0  0  0           0  0  0
    9.6917    1.4958    0.0000 C   0  0  0  0  0  0           0  0  0
  2  1  1  0     0  0
  3  5  1  0     0  0
  4  2  2  0     0  0
  5  1  2  0     0  0
  6  1  1  0     0  0
  7  9  1  0     0  0
  8 12  1  0     0  0
  9 16  2  0     0  0
 10  6  2  0     0  0
 11  4  1  0     0  0
 12 19  2  0     0  0
 13 14  1  0     0  0
 14 22  1  0     0  0
 15 11  1  0     0  0
 16 31  1  0     0  0
 17 18  1  0     0  0
 18 13  1  0     0  0
 19 16  1  0     0  0
 20  7  1  0     0  0
 21 28  1  0     0  0
 22 26  2  0     0  0
 23 25  1  0     0  0
 24  8  1  0     0  0
 25 15  2  0     0  0
 26 15  1  0     0  0
 17 27  1  6     0  0
 28 17  1  0     0  0
 29  6  1  0     0  0
 30 21  1  0     0  0
 31 30  1  0     0  0
 32 20  1  0     0  0
 33 24  1  0     0  0
  3  4  1  0     0  0
 14 23  2  0     0  0
  8  7  2  0     0  0
M  END