
          11280715102D 1   1.00000     0.00000     0

 35 37  0     1  0            999 V2000
    8.1875   -4.6375    0.0000 C   0  0  0  0  0  0           0  0  0
    7.7042   -5.3042    0.0000 N   0  0  3  0  0  0           0  0  0
    8.9667   -4.8875    0.0000 C   0  0  0  0  0  0           0  0  0
   13.2625   -4.8667    0.0000 C   0  0  2  0  0  0           0  0  0
    8.9750   -5.7125    0.0000 C   0  0  0  0  0  0           0  0  0
    9.6875   -4.4667    0.0000 C   0  0  0  0  0  0           0  0  0
   13.2542   -6.2917    0.0000 C   0  0  0  0  0  0           0  0  0
   11.1167   -4.4667    0.0000 C   0  0  0  0  0  0           0  0  0
   13.6667   -5.5792    0.0000 N   0  0  0  0  0  0           0  0  0
    8.1917   -5.9667    0.0000 C   0  0  0  0  0  0           0  0  0
   13.9750   -4.4542    0.0000 C   0  0  0  0  0  0           0  0  0
   10.4042   -4.8792    0.0000 C   0  0  0  0  0  0           0  0  0
   11.8292   -4.8750    0.0000 N   0  0  0  0  0  0           0  0  0
    7.9292   -3.8542    0.0000 O   0  0  0  0  0  0           0  0  0
    6.9917   -4.8917    0.0000 C   0  0  0  0  0  0           0  0  0
   12.5417   -4.4625    0.0000 C   0  0  0  0  0  0           0  0  0
    4.1375   -4.0625    0.0000 N   0  0  0  0  0  0           0  0  0
    9.6875   -6.1250    0.0000 C   0  0  0  0  0  0           0  0  0
   12.4292   -6.2917    0.0000 O   0  0  0  0  0  0           0  0  0
   11.1125   -3.6417    0.0000 O   0  0  0  0  0  0           0  0  0
   13.9667   -3.6292    0.0000 O   0  0  0  0  0  0           0  0  0
   10.4042   -5.7125    0.0000 C   0  0  0  0  0  0           0  0  0
   13.6667   -7.0042    0.0000 N   0  0  0  0  0  0           0  0  0
   14.6917   -4.8667    0.0000 O   0  0  0  0  0  0           0  0  0
    6.2750   -5.3042    0.0000 C   0  0  0  0  0  0           0  0  0
    5.5625   -4.8917    0.0000 C   0  0  3  0  0  0           0  0  0
    4.1375   -4.8917    0.0000 C   0  0  0  0  0  0           0  0  0
    4.8542   -3.6542    0.0000 C   0  0  0  0  0  0           0  0  0
   13.2500   -7.7250    0.0000 C   0  0  0  0  0  0           0  0  0
    5.5667   -4.0667    0.0000 C   0  0  0  0  0  0           0  0  0
    4.8500   -5.3042    0.0000 C   0  0  0  0  0  0           0  0  0
   13.6625   -8.4375    0.0000 C   0  0  0  0  0  0           0  0  0
   13.2500   -9.1542    0.0000 C   0  0  0  0  0  0           0  0  0
   12.4250   -9.1500    0.0000 C   0  0  0  0  0  0           0  0  0
   12.8417   -5.5792    0.0000 H   0  0  0  0  0  0           0  0  0
  2  1  1  0     0  0
  3  1  1  0     0  0
  4 16  1  0     0  0
  5  3  2  0     0  0
  6  3  1  0     0  0
  7  9  1  0     0  0
  8 12  1  0     0  0
  4  9  1  1     0  0
 10  2  1  0     0  0
 11  4  1  0     0  0
 12  6  2  0     0  0
 13  8  1  0     0  0
 14  1  2  0     0  0
 15  2  1  0     0  0
 16 13  1  0     0  0
 17 27  1  0     0  0
 18  5  1  0     0  0
 19  7  2  0     0  0
 20  8  2  0     0  0
 21 11  2  0     0  0
 22 12  1  0     0  0
 23  7  1  0     0  0
 24 11  1  0     0  0
 25 15  1  0     0  0
 26 25  1  0     0  0
 27 31  1  0     0  0
 28 30  1  0     0  0
 29 23  1  0     0  0
 30 26  1  0     0  0
 31 26  1  0     0  0
 32 29  1  0     0  0
 33 32  1  0     0  0
 34 33  1  0     0  0
  4 35  1  6     0  0
 10  5  1  0     0  0
 18 22  2  0     0  0
 28 17  1  0     0  0
M  END