
  SciTegic05071317052D

 24 22  0  0  0  0            999 V2000
    7.2083   -4.4249    0.0000 C   0  0
    7.2083   -5.2499    0.0000 C   0  0
    7.9203   -5.6583    0.0000 N   0  0
    8.6323   -5.2499    0.0000 C   0  0
    8.6323   -4.4249    0.0000 C   0  0
    7.9203   -4.0083    0.0000 N   0  0
    7.9207   -3.1830    0.0000 C   0  0
    8.5881   -2.6981    0.0000 N   0  0
    8.3333   -1.9130    0.0000 C   0  0
    7.5081   -1.9135    0.0000 C   0  0
    7.2533   -2.6981    0.0000 S   0  0
    8.7330   -1.1913    0.0000 C   0  0
    9.5579   -1.1766    0.0000 C   0  0
    9.9576   -0.4550    0.0000 N   0  0
   10.7824   -0.4404    0.0000 C   0  0
    9.5325    0.2563    0.0000 C   0  0
    7.9203   -6.4833    0.0000 C   0  0
    7.2058   -6.8958    0.0000 C   0  0
    7.2058   -7.7208    0.0000 C   0  0
    9.9323    0.9762    0.0000 C   0  0
    9.5072    1.6859    0.0000 C   0  0
   14.7981   -1.2894    0.0000 Br  0  0
   12.4634   -2.8286    0.0000 Br  0  0
   12.2277   -4.6554    0.0000 Br  0  0
  1  2  1  0
  1  6  1  0
  2  3  1  0
  3  4  1  0
  4  5  1  0
  5  6  1  0
  7  8  2  0
  8  9  1  0
  9 10  2  0
 10 11  1  0
 11  7  1  0
  6  7  1  0
  9 12  1  0
 12 13  1  0
 13 14  1  0
 14 15  1  0
 14 16  1  0
  3 17  1  0
 17 18  1  0
 18 19  1  0
 16 20  1  0
 20 21  1  0
M  END