
          11280715332D 1   1.00000     0.00000     0

 31 34  0     0  0            999 V2000
    1.0000    1.0250    0.0000 N   0  0  0  0  0  0           0  0  0
    0.3375    0.5458    0.0000 C   0  0  0  0  0  0           0  0  0
    5.4792   -2.5792    0.0000 N   0  0  0  0  0  0           0  0  0
    0.5875   -0.2417    0.0000 N   0  0  0  0  0  0           0  0  0
    1.6667    0.5458    0.0000 C   0  0  0  0  0  0           0  0  0
    1.4125   -0.2417    0.0000 C   0  0  0  0  0  0           0  0  0
    4.5542   -3.5417    0.0000 N   0  0  0  0  0  0           0  0  0
    5.3667   -3.3917    0.0000 C   0  0  0  0  0  0           0  0  0
    4.7375   -2.2250    0.0000 C   0  0  0  0  0  0           0  0  0
   -1.8458    0.4958    0.0000 C   0  0  3  0  0  0           0  0  0
   -1.0625    0.2458    0.0000 C   0  0  0  0  0  0           0  0  0
    4.1625   -2.8167    0.0000 C   0  0  0  0  0  0           0  0  0
   -0.4458    0.7958    0.0000 C   0  0  0  0  0  0           0  0  0
   -2.4583   -0.0542    0.0000 C   0  0  0  0  0  0           0  0  0
   -2.0208    1.3083    0.0000 C   0  0  0  0  0  0           0  0  0
    2.4542    0.7958    0.0000 C   0  0  0  0  0  0           0  0  0
    3.8542    0.4958    0.0000 N   0  0  0  0  0  0           0  0  0
    4.9042   -1.4167    0.0000 C   0  0  0  0  0  0           0  0  0
    3.0667    0.2458    0.0000 C   0  0  0  0  0  0           0  0  0
   -2.8000    1.5583    0.0000 C   0  0  0  0  0  0           0  0  0
   -3.2458    0.2000    0.0000 C   0  0  0  0  0  0           0  0  0
   -2.2833   -0.8542    0.0000 C   0  0  0  0  0  0           0  0  0
   -1.4083    1.8583    0.0000 C   0  0  0  0  0  0           0  0  0
    4.4667   -0.0542    0.0000 C   0  0  0  0  0  0           0  0  0
    4.2917   -0.8625    0.0000 C   0  0  0  0  0  0           0  0  0
   -1.5750    2.6625    0.0000 C   0  0  0  0  0  0           0  0  0
   -2.9750    2.3583    0.0000 C   0  0  0  0  0  0           0  0  0
   -3.8500   -0.3500    0.0000 C   0  0  0  0  0  0           0  0  0
   -2.8958   -1.4125    0.0000 C   0  0  0  0  0  0           0  0  0
   -3.6833   -1.1542    0.0000 C   0  0  0  0  0  0           0  0  0
   -2.3625    2.9208    0.0000 C   0  0  0  0  0  0           0  0  0
  2  1  2  0     0  0
  3  9  1  0     0  0
  4  2  1  0     0  0
  5  1  1  0     0  0
  6  5  2  0     0  0
  7 12  1  0     0  0
  8  3  2  0     0  0
  9 18  1  0     0  0
 10 11  1  0     0  0
 11 13  1  0     0  0
 12  9  2  0     0  0
 13  2  1  0     0  0
 14 10  1  0     0  0
 15 10  1  0     0  0
 16  5  1  0     0  0
 17 19  1  0     0  0
 18 25  1  0     0  0
 19 16  1  0     0  0
 20 15  1  0     0  0
 21 14  2  0     0  0
 22 14  1  0     0  0
 23 15  2  0     0  0
 24 17  1  0     0  0
 25 24  1  0     0  0
 26 23  1  0     0  0
 27 20  2  0     0  0
 28 21  1  0     0  0
 29 22  2  0     0  0
 30 29  1  0     0  0
 31 26  2  0     0  0
  4  6  1  0     0  0
 27 31  1  0     0  0
 28 30  2  0     0  0
  7  8  1  0     0  0
M  END