
  SciTegic02231516322D

 29 29  0  0  0  0            999 V2000
   17.6541  -17.0154    0.0000 C   0  0
   18.3705  -16.6020    0.0000 C   0  0
   18.3676  -15.7714    0.0000 C   0  0
   17.6522  -15.3623    0.0000 C   0  0
   19.0856  -17.0134    0.0000 O   0  0
   19.0806  -15.3563    0.0000 O   0  0
   19.7966  -15.7661    0.0000 C   0  0
   20.5095  -15.3509    0.0000 C   0  0
   21.2255  -15.7607    0.0000 C   0  0
   20.5064  -14.5259    0.0000 O   0  0
   19.7995  -16.5998    0.0000 C   0  0
   20.5146  -17.0112    0.0000 C   0  0
   20.5159  -17.8362    0.0000 O   0  0
   21.2286  -16.5857    0.0000 C   0  0
   21.9384  -15.3455    0.0000 N   0  0
   21.9487  -16.9883    0.0000 N   0  0
   21.9600  -17.8133    0.0000 C   0  0
   22.6801  -18.2160    0.0000 C   0  0
   21.2513  -18.2356    0.0000 C   0  0
   22.6544  -15.7554    0.0000 C   0  0
   23.3674  -15.3401    0.0000 C   0  0
   22.6576  -16.5803    0.0000 C   0  0
   16.9392  -16.6025    0.0000 C   0  0
   16.9415  -15.7769    0.0000 C   0  0
   16.2289  -15.3640    0.0000 C   0  0
   15.5134  -15.7754    0.0000 C   0  0
   15.5151  -16.6041    0.0000 C   0  0
   16.2283  -17.0134    0.0000 C   0  0
   24.5916  -17.0833    0.0000 Cl  0  0
 23  1  1  0
  1  2  2  0
  2  3  1  0
  3  4  2  0
  4 24  1  0
  2  5  1  0
  3  6  1  0
  6  7  1  0
  7  8  1  0
  8  9  1  0
  8 10  1  0
  5 11  1  0
 11 12  1  0
 12 14  1  0
 12 13  1  0
  9 15  1  0
 14 16  1  0
 16 17  1  0
 17 18  1  0
 17 19  1  0
 15 20  1  0
 20 21  1  0
 20 22  1  0
 23 24  1  0
 24 25  2  0
 25 26  1  0
 26 27  2  0
 27 28  1  0
 28 23  2  0
M  END