
  CDK    9/16/09,10:0

 22 23  0  0  0  0  0  0  0  0999 V2000
   -3.9338   -9.6061    0.0000 C   0  0  0  0  0  0  0  0  0  0  0  0
   -3.9352  -10.4337    0.0000 C   0  0  0  0  0  0  0  0  0  0  0  0
   -3.2222  -10.8465    0.0000 C   0  0  0  0  0  0  0  0  0  0  0  0
   -2.5029  -10.4332    0.0000 C   0  0  0  0  0  0  0  0  0  0  0  0
   -2.5061   -9.6022    0.0000 C   0  0  0  0  0  0  0  0  0  0  0  0
   -3.2242   -9.1933    0.0000 C   0  0  0  0  0  0  0  0  0  0  0  0
   -1.7937   -9.1861    0.0000 C   0  0  0  0  0  0  0  0  0  0  0  0
   -1.0772   -9.5950    0.0000 C   0  0  0  0  0  0  0  0  0  0  0  0
   -1.7977   -8.3612    0.0000 O   0  0  0  0  0  0  0  0  0  0  0  0
   -0.9843  -10.4149    0.0000 C   0  0  0  0  0  0  0  0  0  0  0  0
   -0.1765  -10.5825    0.0000 N   0  0  0  0  0  0  0  0  0  0  0  0
    0.2324   -9.8659    0.0000 C   0  0  0  0  0  0  0  0  0  0  0  0
   -0.3226   -9.2557    0.0000 N   0  0  0  0  0  0  0  0  0  0  0  0
   -4.6501  -10.8451    0.0000 Cl  0  0  0  0  0  0  0  0  0  0  0  0
   -0.1548   -8.4480    0.0000 C   0  0  0  0  0  0  0  0  0  0  0  0
    1.0569   -9.8798    0.0000 S   0  0  0  0  0  0  0  0  0  0  0  0
    1.4575  -10.6009    0.0000 C   0  0  0  0  0  0  0  0  0  0  0  0
    2.2824  -10.6146    0.0000 C   0  0  0  0  0  0  0  0  0  0  0  0
    2.6831  -11.3357    0.0000 C   0  0  0  0  0  0  0  0  0  0  0  0
    3.5079  -11.3492    0.0000 N   0  0  0  0  0  0  0  0  0  0  0  0
    3.9087  -12.0703    0.0000 C   0  0  0  0  0  0  0  0  0  0  0  0
    3.9321  -10.6416    0.0000 C   0  0  0  0  0  0  0  0  0  0  0  0
  5  6  2  0  0  0  0 
  6  1  1  0  0  0  0 
 10 11  1  0  0  0  0 
 11 12  2  0  0  0  0 
 12 13  1  0  0  0  0 
 13  8  1  0  0  0  0 
  1  2  2  0  0  0  0 
  2 14  1  0  0  0  0 
  5  7  1  0  0  0  0 
 13 15  1  0  0  0  0 
  3  4  2  0  0  0  0 
 12 16  1  0  0  0  0 
  7  8  1  0  0  0  0 
 16 17  1  0  0  0  0 
 17 18  1  0  0  0  0 
  7  9  2  0  0  0  0 
 18 19  1  0  0  0  0 
  8 10  2  0  0  0  0 
 19 20  1  0  0  0  0 
  4  5  1  0  0  0  0 
 20 21  1  0  0  0  0 
  2  3  1  0  0  0  0 
 20 22  1  0  0  0  0 
M  END