
          11280714472D 1   1.00000     0.00000     0

 38 42  0     0  0            999 V2000
    6.2792   -3.1250    0.0000 C   0  0  0  0  0  0           0  0  0
    4.8542   -3.9500    0.0000 C   0  0  0  0  0  0           0  0  0
    7.6000   -2.2417    0.0000 C   0  0  0  0  0  0           0  0  0
    4.2167   -4.4792    0.0000 C   0  0  0  0  0  0           0  0  0
    7.5417   -1.4167    0.0000 C   0  0  0  0  0  0           0  0  0
    4.8542   -3.1250    0.0000 C   0  0  0  0  0  0           0  0  0
    6.2792   -3.9500    0.0000 C   0  0  0  0  0  0           0  0  0
    5.5667   -2.7042    0.0000 C   0  0  0  0  0  0           0  0  0
    5.5667   -4.3542    0.0000 C   0  0  0  0  0  0           0  0  0
    8.3042   -1.1125    0.0000 N   0  0  0  0  0  0           0  0  0
    3.5042   -5.6167    0.0000 N   0  0  0  0  0  0           0  0  0
    4.2750   -5.3042    0.0000 C   0  0  0  0  0  0           0  0  0
    3.4167   -4.2667    0.0000 C   0  0  0  0  0  0           0  0  0
    2.9667   -4.9750    0.0000 C   0  0  0  0  0  0           0  0  0
    8.3917   -2.4417    0.0000 C   0  0  0  0  0  0           0  0  0
    8.8292   -1.7417    0.0000 C   0  0  0  0  0  0           0  0  0
    6.8417   -0.9792    0.0000 C   0  0  3  0  0  0           0  0  0
    5.5625   -5.1792    0.0000 O   0  0  0  0  0  0           0  0  0
    5.5625   -1.8792    0.0000 O   0  0  0  0  0  0           0  0  0
    1.4250   -6.1667    0.0000 C   0  0  0  0  0  0           0  0  0
    2.1417   -4.9375    0.0000 C   0  0  0  0  0  0           0  0  0
    7.4500   -0.4167    0.0000 C   0  0  0  0  0  0           0  0  0
    4.1417   -2.7125    0.0000 O   0  0  0  0  0  0           0  0  0
    6.9917   -4.3625    0.0000 O   0  0  0  0  0  0           0  0  0
    1.4292   -5.3417    0.0000 C   0  0  0  0  0  0           0  0  0
    2.0042   -6.7542    0.0000 C   0  0  0  0  0  0           0  0  0
    7.4750    0.4083    0.0000 C   0  0  0  0  0  0           0  0  0
    3.0292   -3.5417    0.0000 C   0  0  0  0  0  0           0  0  0
    8.7875   -3.1667    0.0000 C   0  0  0  0  0  0           0  0  0
    9.6542   -1.7667    0.0000 C   0  0  0  0  0  0           0  0  0
    2.2042   -3.5042    0.0000 C   0  0  0  0  0  0           0  0  0
    6.3542   -0.3375    0.0000 C   0  0  0  0  0  0           0  0  0
    6.5750   -1.5875    0.0000 C   0  0  0  0  0  0           0  0  0
    1.7625   -4.2042    0.0000 C   0  0  0  0  0  0           0  0  0
    2.8917   -6.8625    0.0000 C   0  0  0  0  0  0           0  0  0
    1.8000   -7.5792    0.0000 C   0  0  0  0  0  0           0  0  0
    9.6125   -3.2000    0.0000 C   0  0  0  0  0  0           0  0  0
   10.0500   -2.4917    0.0000 C   0  0  0  0  0  0           0  0  0
  2  6  2  0     0  0
  3  1  1  0     0  0
  4  2  1  0     0  0
  5  3  2  0     0  0
  6  8  1  0     0  0
  7  1  1  0     0  0
  8  1  2  0     0  0
  9  7  1  0     0  0
 10  5  1  0     0  0
 11 12  1  0     0  0
 12  4  2  0     0  0
 13  4  1  0     0  0
 14 13  2  0     0  0
 15  3  1  0     0  0
 16 15  2  0     0  0
 17  5  1  0     0  0
 18  9  2  0     0  0
 19  8  1  0     0  0
 20 25  1  0     0  0
 21 14  1  0     0  0
 22 17  1  0     0  0
 23  6  1  0     0  0
 24  7  2  0     0  0
 25 21  1  0     0  0
 26 20  2  0     0  0
 27 22  2  0     0  0
 28 13  1  0     0  0
 29 15  1  0     0  0
 30 16  1  0     0  0
 31 28  2  0     0  0
 32 17  1  0     0  0
 33 17  1  0     0  0
 34 31  1  0     0  0
 35 26  1  0     0  0
 36 26  1  0     0  0
 37 29  2  0     0  0
 38 37  1  0     0  0
  2  9  1  0     0  0
 16 10  1  0     0  0
 30 38  2  0     0  0
 14 11  1  0     0  0
 21 34  2  0     0  0
M  END