
  SciTegic02271514582D

 16 18  0  0  0  0            999 V2000
   19.3851   -2.3401    0.0000 C   0  0
   20.0904   -1.9357    0.0000 N   0  0
   20.0904   -1.1185    0.0000 C   0  0
   19.3851   -0.7058    0.0000 N   0  0
   18.6798   -1.9357    0.0000 C   0  0
   18.6799   -1.1140    0.0000 N   0  0
   17.8984   -0.8599    0.0000 C   0  0
   17.4153   -1.5248    0.0000 C   0  0
   17.8983   -2.1895    0.0000 C   0  0
   19.3851   -3.1573    0.0000 N   0  0
   20.0928   -3.5659    0.0000 C   0  0
   20.0886   -4.3842    0.0000 C   0  0
   20.7955   -4.7927    0.0000 C   0  0
   21.5042   -4.3841    0.0000 C   0  0
   21.5015   -3.5626    0.0000 N   0  0
   20.7941   -3.1578    0.0000 C   0  0
  6  4  1  0
  5  1  1  0
  1  2  2  0
  2  3  1  0
  3  4  2  0
  5  6  1  0
  6  7  1  0
  7  8  2  0
  8  9  1  0
  9  5  2  0
  1 10  1  0
 10 11  1  0
 11 12  2  0
 12 13  1  0
 13 14  2  0
 14 15  1  0
 15 16  2  0
 16 11  1  0
M  END