
  SciTegic02011310442D

 38 42  0  0  0  0            999 V2000
   16.2711   -4.5313    0.0000 N   0  0
   15.9328   -5.2909    0.0000 C   0  0
   16.4261   -5.9647    0.0000 N   0  0
   17.2497   -5.8746    0.0000 C   0  0
   17.0966   -4.4445    0.0000 N   0  0
   17.5855   -5.1195    0.0000 C   0  0
   18.3786   -4.8629    0.0000 C   0  0
   18.3797   -4.0295    0.0000 C   0  0
   17.5874   -3.7709    0.0000 C   0  0
   15.1080   -5.3790    0.0000 S   0  0
   14.7719   -6.1373    0.0000 C   0  0
   17.7389   -6.5445    0.0000 N   0  0
   17.4032   -7.3031    0.0000 C   0  0
   13.9495   -6.2232    0.0000 C   0  0
   13.6135   -6.9807    0.0000 C   0  0
   14.1024   -7.6519    0.0000 C   0  0
   14.9311   -7.5607    0.0000 C   0  0
   15.2634   -6.8030    0.0000 C   0  0
   16.5934   -7.4752    0.0000 C   0  0
   16.5086   -8.3003    0.0000 C   0  0
   17.2672   -8.6359    0.0000 N   0  0
   17.8206   -8.0181    0.0000 N   0  0
   15.7912   -8.7167    0.0000 C   0  0
   13.7673   -8.4106    0.0000 N   0  0
   12.9426   -8.4999    0.0000 C   0  0
   12.6075   -9.2587    0.0000 C   0  0
   11.7828   -9.3480    0.0000 N   0  0
   12.4530   -7.8303    0.0000 O   0  0
   11.2295   -8.7333    0.0000 C   0  0
   10.4728   -9.0729    0.0000 C   0  0  1  0  0  0
   10.5620   -9.8978    0.0000 C   0  0
   11.3738  -10.0677    0.0000 C   0  0
    9.7531   -8.6604    0.0000 S   0  3
    9.0361   -9.0774    0.0000 C   0  0
    8.3164   -8.6648    0.0000 C   0  0
    9.0385   -9.9069    0.0000 C   0  0
    8.3686   -9.5632    0.0000 C   0  0
    9.7505   -7.8310    0.0000 O   0  5
  5  1  1  0
  1  2  2  0
  2  3  1  0
  3  4  2  0
  4  6  1  0
  5  6  1  0
  6  7  2  0
  7  8  1  0
  8  9  2  0
  9  5  1  0
  2 10  1  0
 10 11  1  0
  4 12  1  0
 12 13  1  0
 11 14  2  0
 14 15  1  0
 15 16  2  0
 16 17  1  0
 17 18  2  0
 18 11  1  0
 13 19  1  0
 19 20  2  0
 20 21  1  0
 21 22  1  0
 22 13  2  0
 20 23  1  0
 16 24  1  0
 24 25  1  0
 25 26  1  0
 26 27  1  0
 25 28  2  0
 27 29  1  0
 29 30  1  0
 30 31  1  0
 31 32  1  0
 32 27  1  0
 30 33  1  1
 33 34  1  0
 34 35  1  0
 34 36  1  0
 34 37  1  0
 33 38  1  0
M  CHG  2  33   1  38  -1
M  END