
          11280715252D 1   1.00000     0.00000     0

 15 15  0     0  0            999 V2000
    4.9792   -1.7542    0.0000 C   0  0  0  0  0  0           0  0  0
    4.9792   -1.1542    0.0000 C   0  0  0  0  0  0           0  0  0
    5.5042   -2.0542    0.0000 C   0  0  0  0  0  0           0  0  0
    5.5042   -2.6625    0.0000 C   0  0  0  0  0  0           0  0  0
    4.9792   -2.9625    0.0000 C   0  0  0  0  0  0           0  0  0
    4.4667   -2.0625    0.0000 C   0  0  0  0  0  0           0  0  0
    4.4542   -0.8625    0.0000 O   0  0  0  0  0  0           0  0  0
    4.4667   -2.6625    0.0000 C   0  0  0  0  0  0           0  0  0
    5.5000   -0.8542    0.0000 C   0  0  3  0  0  0           0  0  0
    5.4917   -0.2542    0.0000 N   0  0  0  0  0  0           0  0  0
    5.9250   -3.0792    0.0000 O   0  0  0  0  0  0           0  0  0
    4.9792   -3.5625    0.0000 O   0  0  0  0  0  0           0  0  0
    6.0167   -1.1542    0.0000 C   0  0  0  0  0  0           0  0  0
    5.7667   -3.6625    0.0000 C   0  0  0  0  0  0           0  0  0
    5.4917   -3.8667    0.0000 C   0  0  0  0  0  0           0  0  0
  2  1  1  0     0  0
  3  1  2  0     0  0
  4  3  1  0     0  0
  5  8  1  0     0  0
  6  1  1  0     0  0
  7  2  2  0     0  0
  8  6  2  0     0  0
  9  2  1  0     0  0
 10  9  1  0     0  0
 11  4  1  0     0  0
 12  5  1  0     0  0
 13  9  1  0     0  0
 14 11  1  0     0  0
 15 12  1  0     0  0
  5  4  2  0     0  0
M  END