
  SciTegic01161211252D

 32 35  0  0  0  0            999 V2000
   15.8328   -4.5902    0.0000 O   0  0
   15.0994   -4.9724    0.0000 S   0  0
   15.7956   -5.4149    0.0000 O   0  0
   15.8451   -2.9316    0.0000 C   0  0
   16.5053   -2.4380    0.0000 C   0  0
   16.2404   -1.6567    0.0000 C   0  0
   15.4127   -1.6700    0.0000 N   0  0
   15.1710   -2.4591    0.0000 N   0  0
   14.9854   -0.9617    0.0000 C   0  0
   15.3884   -0.2386    0.0000 C   0  0
   14.9611    0.4682    0.0000 C   0  0
   14.1351    0.4532    0.0000 C   0  0
   13.7384   -0.2746    0.0000 C   0  0
   14.1637   -0.9785    0.0000 C   0  0
   16.6773   -0.9598    0.0000 C   0  0
   17.5031   -0.9900    0.0000 C   0  0
   17.9424   -0.2906    0.0000 C   0  0
   17.5529    0.4396    0.0000 C   0  0
   16.7239    0.4659    0.0000 C   0  0
   16.2925   -0.2343    0.0000 C   0  0
   15.8523   -3.7516    0.0000 C   0  0
   15.1298   -4.1491    0.0000 N   0  0
   14.3715   -5.3587    0.0000 N   0  0
   13.7105    1.1600    0.0000 Cl  0  0
   13.6756   -4.9235    0.0000 C   0  0
   12.9500   -5.3064    0.0000 C   0  0
   12.9183   -6.1307    0.0000 C   0  0
   13.6186   -6.5707    0.0000 C   0  0
   14.3507   -6.1822    0.0000 C   0  0
   12.1926   -6.5189    0.0000 F   0  0
   16.5609   -4.1663    0.0000 N   0  0
   17.2743   -3.7601    0.0000 C   0  0
  2  1  2  0
 16 17  1  0
  3  2  2  0
 17 18  2  0
  9 10  2  0
 18 19  1  0
  4  5  1  0
 19 20  2  0
 20 15  1  0
  6 15  1  0
 10 11  1  0
  4 21  1  0
 21 22  2  0
 22  2  1  0
 11 12  2  0
  2 23  1  0
  5  6  1  0
 12 24  1  0
 23 25  1  0
 12 13  1  0
  6  7  1  0
 13 14  2  0
 14  9  1  0
  7  9  1  0
 23 29  1  0
 25 26  1  0
 26 27  1  0
 27 28  1  0
 28 29  1  0
  7  8  1  0
 27 30  1  0
  8  4  2  0
 21 31  1  0
 15 16  2  0
 31 32  1  0
M  END