
          11280714452D 1   1.00000     0.00000     0

 34 38  0     0  0            999 V2000
   10.5292    1.6458    0.0000 N   0  0  0  0  0  0           0  0  0
   10.1167    0.3833    0.0000 C   0  0  0  0  0  0           0  0  0
    9.7042    1.6458    0.0000 N   0  0  0  0  0  0           0  0  0
   10.7792    0.8625    0.0000 N   0  0  0  0  0  0           0  0  0
    9.4125   -1.6875    0.0000 C   0  0  0  0  0  0           0  0  0
    9.4500    0.8583    0.0000 N   0  0  0  0  0  0           0  0  0
    9.4125   -0.8625    0.0000 C   0  0  0  0  0  0           0  0  0
    2.2792   -0.8667    0.0000 N   0  0  0  0  0  0           0  0  0
   10.1250   -0.4417    0.0000 C   0  0  0  0  0  0           0  0  0
    8.6917   -2.1000    0.0000 C   0  0  0  0  0  0           0  0  0
    7.9792   -1.6875    0.0000 C   0  0  0  0  0  0           0  0  0
    1.5667   -0.4625    0.0000 C   0  0  0  0  0  0           0  0  0
   10.1250   -2.1000    0.0000 C   0  0  0  0  0  0           0  0  0
    7.2667   -2.1000    0.0000 C   0  0  0  0  0  0           0  0  0
   10.8417   -0.8542    0.0000 C   0  0  0  0  0  0           0  0  0
    2.9875   -0.4542    0.0000 C   0  0  0  0  0  0           0  0  0
    8.6917   -2.9250    0.0000 O   0  0  0  0  0  0           0  0  0
   10.8417   -1.6875    0.0000 C   0  0  0  0  0  0           0  0  0
    1.5625    0.3708    0.0000 C   0  0  0  0  0  0           0  0  0
    2.2792    0.7833    0.0000 C   0  0  0  0  0  0           0  0  0
    6.5542   -1.6875    0.0000 C   0  0  0  0  0  0           0  0  0
    4.4167   -0.4500    0.0000 O   0  0  0  0  0  0           0  0  0
    5.1292   -0.8625    0.0000 C   0  0  0  0  0  0           0  0  0
    3.7042   -0.8667    0.0000 C   0  0  0  0  0  0           0  0  0
    2.9917    0.3708    0.0000 C   0  0  0  0  0  0           0  0  0
   10.1250   -2.9250    0.0000 O   0  0  0  0  0  0           0  0  0
    6.5542   -0.8542    0.0000 C   0  0  0  0  0  0           0  0  0
    5.8417   -2.0917    0.0000 C   0  0  0  0  0  0           0  0  0
    5.1292   -1.6875    0.0000 C   0  0  0  0  0  0           0  0  0
    5.8417   -0.4417    0.0000 C   0  0  0  0  0  0           0  0  0
    0.8542   -0.8792    0.0000 C   0  0  0  0  0  0           0  0  0
    0.8417    0.7750    0.0000 C   0  0  0  0  0  0           0  0  0
    0.1375   -0.4750    0.0000 C   0  0  0  0  0  0           0  0  0
    0.1292    0.3583    0.0000 C   0  0  0  0  0  0           0  0  0
  2  4  1  0     0  0
  3  1  1  0     0  0
  4  1  2  0     0  0
  5  7  2  0     0  0
  6  3  1  0     0  0
  7  9  1  0     0  0
  8 16  1  0     0  0
  9  2  1  0     0  0
 10  5  1  0     0  0
 11 10  1  0     0  0
 12  8  2  0     0  0
 13 18  2  0     0  0
 14 11  2  0     0  0
 15  9  2  0     0  0
 16 24  1  0     0  0
 17 10  2  0     0  0
 18 15  1  0     0  0
 19 20  2  0     0  0
 20 25  1  0     0  0
 21 14  1  0     0  0
 22 23  1  0     0  0
 23 29  1  0     0  0
 24 22  1  0     0  0
 25 16  2  0     0  0
 26 13  1  0     0  0
 27 21  2  0     0  0
 28 21  1  0     0  0
 29 28  2  0     0  0
 30 27  1  0     0  0
 31 12  1  0     0  0
 32 19  1  0     0  0
 33 31  2  0     0  0
 34 32  2  0     0  0
  2  6  2  0     0  0
 13  5  1  0     0  0
 23 30  2  0     0  0
 19 12  1  0     0  0
 34 33  1  0     0  0
M  END