
  SciTegic01091216402D

 21 22  0  0  0  0            999 V2000
    4.2378   -3.4096    0.0000 C   0  0
    4.6447   -4.1273    0.0000 C   0  0
    4.6518   -2.6960    0.0000 C   0  0
    2.9301   -3.1331    0.0000 N   0  0
    3.0152   -3.9552    0.0000 N   0  0
    3.8220   -4.1278    0.0000 C   0  0
    3.6830   -2.8008    0.0000 C   0  0
    2.2168   -2.7232    0.0000 C   0  0
    1.5025   -3.1359    0.0000 N   0  0
    2.2159   -1.8970    0.0000 N   0  0
    2.9302   -1.4843    0.0000 C   0  0
    3.6455   -1.8978    0.0000 C   0  0
    0.7867   -2.7183    0.0000 S   0  0
    1.1971   -2.0092    0.0000 O   0  0
    0.0750   -3.1380    0.0000 C   0  0
    0.0834   -3.9629    0.0000 C   0  0
   -0.6241   -4.3826    0.0000 C   0  0
   -1.3441   -3.9774    0.0000 C   0  0
   -1.3525   -3.1524    0.0000 C   0  0
   -0.6408   -2.7327    0.0000 C   0  0
    0.1958   -2.1292    0.0000 O   0  0
  1  2  1  0
  4  5  1  0
  5  6  2  0
  6  1  1  0
  1  7  1  0
  4  7  1  0
  8  9  2  0
  8 10  1  0
  4  8  1  0
 11 12  1  0
 10 11  1  0
 13 14  2  0
 15 16  1  0
 16 17  2  0
 17 18  1  0
 18 19  2  0
 19 20  1  0
 15 20  2  0
 13 15  1  0
  9 13  1  0
  1  3  1  0
 13 21  2  0
M  END