
  SciTegic06051313522D

 36 40  0  0  0  0            999 V2000
    2.1159   -9.4431    0.0000 C   0  0
    2.1147  -10.2626    0.0000 N   0  0
    2.8228  -10.6716    0.0000 C   0  0
    3.5324  -10.2621    0.0000 C   0  0
    3.5296   -9.4395    0.0000 C   0  0
    2.8210   -9.0342    0.0000 C   0  0
    4.2373  -10.6689    0.0000 C   0  0
    4.2372  -11.4872    0.0000 N   0  0
    4.9447  -11.8946    0.0000 C   0  0
    5.6528  -11.4848    0.0000 N   0  0
    5.6488  -10.6634    0.0000 C   0  0
    4.9408  -10.2597    0.0000 C   0  0
    4.9456  -12.7117    0.0000 N   0  0
    5.6537  -13.1196    0.0000 C   0  0
    5.6524  -13.9346    0.0000 C   0  0
    6.3598  -14.3423    0.0000 C   0  0
    7.0680  -13.9329    0.0000 C   0  0
    7.0645  -13.1115    0.0000 C   0  0
    6.3566  -12.7075    0.0000 C   0  0
    4.9445  -14.3429    0.0000 C   0  0
    7.7703  -12.6997    0.0000 C   0  0
    8.4799  -13.1050    0.0000 N   0  0
    7.7665  -11.8825    0.0000 O   0  0
    9.1857  -12.6931    0.0000 C   0  0
    9.8919  -13.1027    0.0000 C   0  0
   10.5972  -12.6915    0.0000 C   0  0
   10.5939  -11.8735    0.0000 C   0  0
    9.8793  -11.4683    0.0000 C   0  0
    9.1769  -11.8818    0.0000 C   0  0
   11.2498  -13.1774    0.0000 N   0  0
   11.2404  -13.9945    0.0000 C   0  0
   12.0146  -14.2560    0.0000 N   0  0
   12.5026  -13.6004    0.0000 C   0  0
   12.0298  -12.9339    0.0000 C   0  0
   13.3197  -13.6098    0.0000 C   0  0
    9.8727  -10.6512    0.0000 C   0  0
  1  2  2  0
  2  3  1  0
  3  4  2  0
  4  5  1  0
  5  6  2  0
  6  1  1  0
  7  8  2  0
  8  9  1  0
  9 10  2  0
 10 11  1  0
 11 12  2  0
 12  7  1  0
  4  7  1  0
  9 13  1  0
 13 14  1  0
 14 15  2  0
 15 16  1  0
 16 17  2  0
 17 18  1  0
 18 19  2  0
 19 14  1  0
 15 20  1  0
 18 21  1  0
 21 22  1  0
 21 23  2  0
 22 24  1  0
 24 25  2  0
 25 26  1  0
 26 27  2  0
 27 28  1  0
 28 29  2  0
 29 24  1  0
 30 31  1  0
 31 32  2  0
 32 33  1  0
 33 34  2  0
 34 30  1  0
 26 30  1  0
 33 35  1  0
 28 36  1  0
M  END