
  CDK    9/16/09,10:6

 43 44  0  0  0  0  0  0  0  0999 V2000
    6.1712  -26.1180    0.0000 C   0  0  0  0  0  0  0  0  0  0  0  0
    6.1712  -26.9465    0.0000 C   0  0  0  0  0  0  0  0  0  0  0  0
    6.8874  -27.3606    0.0000 C   0  0  0  0  0  0  0  0  0  0  0  0
    7.6035  -26.9465    0.0000 C   0  0  0  0  0  0  0  0  0  0  0  0
    7.6035  -26.1180    0.0000 C   0  0  0  0  0  0  0  0  0  0  0  0
    6.8874  -25.7039    0.0000 C   0  0  0  0  0  0  0  0  0  0  0  0
    6.8861  -24.8801    0.0000 O   0  0  0  0  0  0  0  0  0  0  0  0
    6.8861  -28.1844    0.0000 O   0  0  0  0  0  0  0  0  0  0  0  0
    5.4587  -25.7102    0.0000 C   0  0  0  0  0  0  0  0  0  0  0  0
    5.4566  -24.8865    0.0000 C   0  0  0  0  0  0  0  0  0  0  0  0
    4.7395  -24.4741    0.0000 C   0  0  0  0  0  0  0  0  0  0  0  0
    6.1671  -24.4705    0.0000 C   0  0  0  0  0  0  0  0  0  0  0  0
    6.1651  -23.6468    0.0000 C   0  0  0  0  0  0  0  0  0  0  0  0
    6.8803  -23.2355    0.0000 C   0  0  0  0  0  0  0  0  0  0  0  0
    5.4526  -23.2390    0.0000 O   0  0  0  0  0  0  0  0  0  0  0  0
    5.4506  -22.4152    0.0000 C   0  0  0  0  0  0  0  0  0  0  0  0
    6.8783  -22.4118    0.0000 C   0  0  0  0  0  0  0  0  0  0  0  0
    7.5928  -23.6433    0.0000 O   0  0  0  0  0  0  0  0  0  0  0  0
    7.5888  -21.9958    0.0000 C   0  0  0  0  0  0  0  0  0  0  0  0
    6.1611  -21.9993    0.0000 C   0  0  0  0  0  0  0  0  0  0  0  0
    8.3060  -22.4083    0.0000 C   0  0  0  0  0  0  0  0  0  0  0  0
    9.0165  -21.9923    0.0000 C   0  0  0  0  0  0  0  0  0  0  0  0
    8.3080  -23.2320    0.0000 C   0  0  0  0  0  0  0  0  0  0  0  0
    9.8384  -21.9900    0.0000 C   0  0  0  0  0  0  0  0  0  0  0  0
   10.5505  -22.4042    0.0000 C   0  0  0  0  0  0  0  0  0  0  0  0
   10.0506  -21.1947    0.0000 O   0  0  0  0  0  0  0  0  0  0  0  0
    8.8023  -21.1977    0.0000 O   0  0  0  0  0  0  0  0  0  0  0  0
    8.0064  -20.9876    0.0000 C   0  0  0  0  0  0  0  0  0  0  0  0
    7.7875  -20.1884    0.0000 O   0  0  0  0  0  0  0  0  0  0  0  0
    7.4249  -21.5723    0.0000 N   0  0  0  0  0  0  0  0  0  0  0  0
   10.8503  -20.9824    0.0000 C   0  0  0  0  0  0  0  0  0  0  0  0
   10.5485  -23.2279    0.0000 C   0  0  0  0  0  0  0  0  0  0  0  0
    9.8313  -23.6357    0.0000 C   0  0  0  0  0  0  0  0  0  0  0  0
    9.8292  -24.4595    0.0000 C   0  0  0  0  0  0  0  0  0  0  0  0
   10.5444  -24.8754    0.0000 C   0  0  0  0  0  0  0  0  0  0  0  0
    8.3201  -25.7092    0.0000 N   0  0  0  0  0  0  0  0  0  0  0  0
    8.3210  -24.8855    0.0000 C   0  0  0  0  0  0  0  0  0  0  0  0
    7.6052  -24.4705    0.0000 O   0  0  0  0  0  0  0  0  0  0  0  0
    5.4455  -27.3651    0.0000 N   0  0  0  0  0  0  0  0  0  0  0  0
    4.7202  -26.9459    0.0000 C   0  0  0  0  0  0  0  0  0  0  0  0
    3.9946  -27.3645    0.0000 C   0  0  0  0  0  0  0  0  0  0  0  0
    3.2692  -26.9454    0.0000 F   0  0  0  0  0  0  0  0  0  0  0  0
    8.4283  -23.6422    0.0000 C   0  0  0  0  0  0  0  0  0  0  0  0
  3  4  1  0  0  0  0 
 21 22  1  0  0  0  0 
 10 11  1  1  0  0  0 
 21 23  1  0  0  0  0 
  4  5  2  0  0  0  0 
 22 24  1  0  0  0  0 
 10 12  1  0  0  0  0 
 24 25  1  0  0  0  0 
  5  6  1  0  0  0  0 
 24 26  1  1  0  0  0 
 12 13  1  0  0  0  0 
 22 27  1  6  0  0  0 
 27 28  1  0  0  0  0 
 13 14  1  0  0  0  0 
 28 29  2  0  0  0  0 
  6  7  2  0  0  0  0 
 28 30  1  0  0  0  0 
 13 15  1  6  0  0  0 
 26 31  1  0  0  0  0 
  1  2  2  0  0  0  0 
 25 32  2  0  0  0  0 
 15 16  1  0  0  0  0 
 32 33  1  0  0  0  0 
  3  8  2  0  0  0  0 
 33 34  2  0  0  0  0 
 14 17  1  0  0  0  0 
 34 35  1  0  0  0  0 
  1  6  1  0  0  0  0 
  5 36  1  0  0  0  0 
 14 18  1  1  0  0  0 
 36 37  1  0  0  0  0 
  1  9  1  0  0  0  0 
 37 38  2  0  0  0  0 
 37 34  1  0  0  0  0 
 17 19  1  0  0  0  0 
  2 39  1  0  0  0  0 
  2  3  1  0  0  0  0 
 39 40  1  0  0  0  0 
 17 20  1  1  0  0  0 
 40 41  1  0  0  0  0 
  9 10  1  0  0  0  0 
 41 42  1  0  0  0  0 
 19 21  2  0  0  0  0 
 18 43  1  0  0  0  0 
M  END