
  CDK    9/16/09,10:6

 22 24  0  0  0  0  0  0  0  0999 V2000
   -5.2009  -12.2201    0.0000 C   0  0  0  0  0  0  0  0  0  0  0  0
   -5.2021  -13.0464    0.0000 C   0  0  0  0  0  0  0  0  0  0  0  0
   -4.4902  -13.4588    0.0000 C   0  0  0  0  0  0  0  0  0  0  0  0
   -4.4921  -11.8078    0.0000 C   0  0  0  0  0  0  0  0  0  0  0  0
   -3.7750  -12.2160    0.0000 C   0  0  0  0  0  0  0  0  0  0  0  0
   -3.7712  -13.0485    0.0000 C   0  0  0  0  0  0  0  0  0  0  0  0
   -3.0525  -13.4592    0.0000 C   0  0  0  0  0  0  0  0  0  0  0  0
   -2.3329  -13.0421    0.0000 C   0  0  0  0  0  0  0  0  0  0  0  0
   -2.3365  -12.2096    0.0000 C   0  0  0  0  0  0  0  0  0  0  0  0
   -3.0599  -11.7943    0.0000 O   0  0  0  0  0  0  0  0  0  0  0  0
   -3.0500  -14.2830    0.0000 O   0  0  0  0  0  0  0  0  0  0  0  0
   -1.6260  -11.7963    0.0000 C   0  0  0  0  0  0  0  0  0  0  0  0
   -0.9108  -12.2075    0.0000 C   0  0  0  0  0  0  0  0  0  0  0  0
   -0.1994  -11.7939    0.0000 C   0  0  0  0  0  0  0  0  0  0  0  0
   -0.2017  -10.9692    0.0000 C   0  0  0  0  0  0  0  0  0  0  0  0
   -0.9216  -10.5599    0.0000 C   0  0  0  0  0  0  0  0  0  0  0  0
   -1.6302  -10.9759    0.0000 C   0  0  0  0  0  0  0  0  0  0  0  0
   -5.9146  -11.8087    0.0000 O   0  0  0  0  0  0  0  0  0  0  0  0
   -4.4927  -14.2826    0.0000 O   0  0  0  0  0  0  0  0  0  0  0  0
   -0.9273   -9.7361    0.0000 O   0  0  0  0  0  0  0  0  0  0  0  0
    0.5098  -10.5538    0.0000 O   0  0  0  0  0  0  0  0  0  0  0  0
   -1.6181  -13.4518    0.0000 O   0  0  0  0  0  0  0  0  0  0  0  0
  5  6  1  0  0  0  0 
  7 11  2  0  0  0  0 
  2  3  1  0  0  0  0 
 12 13  2  0  0  0  0 
  3  6  2  0  0  0  0 
 13 14  1  0  0  0  0 
  1  2  2  0  0  0  0 
 14 15  2  0  0  0  0 
  5  4  2  0  0  0  0 
 15 16  1  0  0  0  0 
  4  1  1  0  0  0  0 
 16 17  2  0  0  0  0 
 17 12  1  0  0  0  0 
  9 12  1  0  0  0  0 
  5 10  1  0  0  0  0 
  1 18  1  0  0  0  0 
  6  7  1  0  0  0  0 
  3 19  1  0  0  0  0 
  7  8  1  0  0  0  0 
 16 20  1  0  0  0  0 
  8  9  1  0  0  0  0 
 15 21  1  0  0  0  0 
  9 10  1  0  0  0  0 
  8 22  1  0  0  0  0 
M  END