
  SciTegic06051313522D

 24 26  0  0  0  0            999 V2000
   24.6021  -30.5607    0.0000 C   0  0
   25.3118  -30.1512    0.0000 C   0  0
   25.3090  -29.3286    0.0000 C   0  0
   24.6003  -28.9233    0.0000 C   0  0
   26.0151  -28.9173    0.0000 N   0  0
   26.7244  -29.3232    0.0000 C   0  0
   23.8941  -30.1517    0.0000 C   0  0
   23.8953  -29.3306    0.0000 C   0  0
   23.1148  -29.0757    0.0000 N   0  0
   22.6311  -29.7393    0.0000 O   0  0
   23.1128  -30.4042    0.0000 N   0  0
   24.6004  -28.1023    0.0000 N   0  3
   23.8918  -27.6953    0.0000 O   0  0
   25.3072  -27.6922    0.0000 O   0  5
   26.7241  -30.1381    0.0000 C   0  0
   27.4325  -30.5440    0.0000 C   0  0
   28.1397  -30.1326    0.0000 C   0  0
   28.1340  -29.3112    0.0000 C   0  0
   27.4250  -28.9091    0.0000 C   0  0
   28.8387  -28.8975    0.0000 F   0  0
   27.4352  -31.3611    0.0000 C   0  0
   26.7289  -31.7721    0.0000 F   0  0
   28.1443  -31.7674    0.0000 F   0  0
   27.4296  -32.1759    0.0000 F   0  0
  7  1  1  0
  1  2  2  0
  2  3  1  0
  3  4  2  0
  4  8  1  0
  3  5  1  0
  5  6  1  0
  7  8  1  0
  8  9  2  0
  9 10  1  0
 10 11  1  0
 11  7  2  0
 12 13  2  0
 12 14  1  0
  4 12  1  0
  6 15  2  0
 15 16  1  0
 16 17  2  0
 17 18  1  0
 18 19  2  0
 19  6  1  0
 18 20  1  0
 16 21  1  0
 21 22  1  0
 21 23  1  0
 21 24  1  0
M  CHG  2  12   1  14  -1
M  END