
  SciTegic01161211252D

 29 32  0  0  0  0            999 V2000
   18.2542  -19.3458    0.0000 N   0  0
   18.2542  -20.1708    0.0000 C   0  0
   18.9662  -20.5792    0.0000 C   0  0
   19.6782  -20.1708    0.0000 N   0  0
   19.6782  -19.3458    0.0000 C   0  0
   18.9662  -18.9292    0.0000 C   0  0
   20.3921  -20.5844    0.0000 C   0  0
   17.6723  -18.7610    0.0000 C   0  0
   17.6710  -17.9383    0.0000 C   0  0
   16.8460  -17.9362    0.0000 C   0  0
   16.8438  -18.7612    0.0000 C   0  0
   16.1321  -19.1802    0.0000 C   0  0
   15.4142  -18.7739    0.0000 C   0  0
   14.7033  -19.1925    0.0000 C   0  0
   13.9869  -18.7887    0.0000 C   0  0
   13.2765  -19.2066    0.0000 C   0  0
   13.2831  -20.0324    0.0000 C   0  0
   14.0061  -20.4386    0.0000 C   0  0
   14.7136  -20.0183    0.0000 C   0  0
   18.2546  -17.3552    0.0000 O   0  0
   16.2641  -17.3513    0.0000 O   0  0
   13.9780  -17.9639    0.0000 C   0  0
   13.9704  -17.1390    0.0000 N   0  0
   20.3909  -21.4094    0.0000 C   0  0
   19.6731  -21.8158    0.0000 C   0  0
   19.6700  -22.6372    0.0000 C   0  0
   20.3820  -23.0546    0.0000 C   0  0
   21.0989  -22.6444    0.0000 C   0  0
   21.1038  -21.8168    0.0000 C   0  0
 13 14  1  0
  4  7  1  0
 14 15  2  0
  1  2  1  0
 15 16  1  0
  1  8  1  0
 16 17  2  0
  8  9  1  0
 17 18  1  0
  1  6  1  0
 18 19  2  0
 19 14  1  0
  2  3  1  0
  9 20  2  0
  3  4  1  0
 10 21  2  0
  9 10  1  0
 10 11  1  0
 22 23  3  0
 15 22  1  0
 11  8  2  0
  7 24  1  0
 24 25  1  0
  4  5  1  0
 11 12  1  0
  5  6  1  0
 12 13  2  0
 24 29  1  0
 25 26  1  0
 26 27  1  0
 27 28  1  0
 28 29  1  0
M  END