
          05270816392D 1   1.00000     0.00000     0

 37 42  0     1  0            999 V2000
    8.8674    2.4431    0.0000 C   0  0  0  0  0  0           0  0  0
    8.8661    1.6200    0.0000 C   0  0  0  0  0  0           0  0  0
   10.2908    2.4470    0.0000 C   0  0  0  0  0  0           0  0  0
    9.5817    2.8558    0.0000 C   0  0  0  0  0  0           0  0  0
   10.2939    1.6205    0.0000 C   0  0  0  0  0  0           0  0  0
    9.5825    1.2060    0.0000 C   0  0  0  0  0  0           0  0  0
    9.5811    0.3838    0.0000 C   0  0  0  0  0  0           0  0  0
   10.2942   -0.0300    0.0000 C   0  0  0  0  0  0           0  0  0
    8.2502    1.0679    0.0000 N   0  0  0  0  0  0           0  0  0
    8.7967    0.1293    0.0000 C   0  0  0  0  0  0           0  0  0
   11.0087    1.2083    0.0000 C   0  0  2  0  0  0           0  0  0
   11.0094    0.3804    0.0000 C   0  0  2  0  0  0           0  0  0
   11.7229   -0.0305    0.0000 N   0  0  3  0  0  0           0  0  0
   12.4400    0.3819    0.0000 C   0  0  0  0  0  0           0  0  0
   12.4391    1.2098    0.0000 C   0  0  1  0  0  0           0  0  0
   11.7211    1.6253    0.0000 C   0  0  0  0  0  0           0  0  0
   11.0003   -0.4400    0.0000 H   0  0  0  0  0  0           0  0  0
   11.0003    2.0351    0.0000 H   0  0  0  0  0  0           0  0  0
   13.1536    1.6223    0.0000 C   0  0  0  0  0  0           0  0  0
   13.1536    2.4473    0.0000 O   0  0  0  0  0  0           0  0  0
   13.8681    1.2098    0.0000 N   0  0  3  0  0  0           0  0  0
   13.8630    0.3795    0.0000 C   0  0  0  0  0  0           0  0  0
   14.5734   -0.0329    0.0000 C   0  0  0  0  0  0           0  0  0
   15.2903    0.3761    0.0000 N   0  0  3  0  0  0           0  0  0
   15.2923    1.2021    0.0000 C   0  0  0  0  0  0           0  0  0
   14.5773    1.6190    0.0000 C   0  0  0  0  0  0           0  0  0
   16.0032   -0.0391    0.0000 C   0  0  0  0  0  0           0  0  0
   15.9952   -0.8630    0.0000 C   0  0  0  0  0  0           0  0  0
   16.7072   -1.2781    0.0000 C   0  0  0  0  0  0           0  0  0
   17.4244   -0.8681    0.0000 C   0  0  0  0  0  0           0  0  0
   17.4248   -0.0389    0.0000 C   0  0  0  0  0  0           0  0  0
   16.7121    0.3725    0.0000 C   0  0  0  0  0  0           0  0  0
   11.7226   -0.8555    0.0000 C   0  0  0  0  0  0           0  0  0
   18.1406   -1.2851    0.0000 N   0  3  0  0  0  0           0  0  0
   18.8560   -0.8743    0.0000 O   0  0  0  0  0  0           0  0  0
   18.1386   -2.1101    0.0000 O   0  5  0  0  0  0           0  0  0
    8.5022   -0.6414    0.0000 Br  0  0  0  0  0  0           0  0  0
 12 17  1  1     0  0
  7  8  1  0     0  0
 11 18  1  6     0  0
  8 12  1  0     0  0
 15 19  1  1     0  0
  3  4  2  0     0  0
 19 20  2  0     0  0
  2  9  1  0     0  0
 19 21  1  0     0  0
 21 22  1  0     0  0
  4  1  1  0     0  0
  7 10  2  0     0  0
  9 10  1  0     0  0
 11 12  1  0     0  0
  5  6  2  0     0  0
 21 26  1  0     0  0
 22 23  1  0     0  0
 23 24  1  0     0  0
 24 25  1  0     0  0
 25 26  1  0     0  0
  2  6  1  0     0  0
 24 27  1  0     0  0
 27 28  2  0     0  0
  5  3  1  0     0  0
 28 29  1  0     0  0
  1  2  2  0     0  0
 29 30  2  0     0  0
  5 11  1  0     0  0
 30 31  1  0     0  0
 11 16  1  0     0  0
 31 32  2  0     0  0
 32 27  1  0     0  0
 12 13  1  0     0  0
 13 33  1  0     0  0
 13 14  1  0     0  0
 14 15  1  0     0  0
 15 16  1  0     0  0
 34 35  2  0     0  0
 34 36  1  0     0  0
 30 34  1  0     0  0
  6  7  1  0     0  0
 10 37  1  0     0  0
M  CHG  2  34   1  36  -1
M  END