
  SciTegic01161211262D

 28 32  0  0  0  0            999 V2000
   14.2553  -14.2627    0.0000 C   0  0
   14.4678  -15.0586    0.0000 C   0  0
   15.2904  -15.1024    0.0000 N   0  0
   15.5863  -14.3336    0.0000 C   0  0
   14.9465  -13.8148    0.0000 N   0  0
    8.5486  -13.4291    0.0000 C   0  0
    8.5474  -14.2565    0.0000 C   0  0
    9.2622  -14.6694    0.0000 C   0  0
    9.2604  -13.0164    0.0000 C   0  0
    9.9758  -13.4255    0.0000 C   0  0
    9.9746  -14.2540    0.0000 C   0  0
   10.6876  -14.6669    0.0000 O   0  0
   11.4063  -14.2560    0.0000 C   0  0
   11.4074  -13.4275    0.0000 C   0  0
   10.6899  -13.0100    0.0000 O   0  0
   12.1229  -13.0167    0.0000 C   0  0
   12.8364  -13.4310    0.0000 N   0  0
   12.8291  -14.2549    0.0000 C   0  0
   13.5384  -14.6691    0.0000 C   0  0
   14.2603  -13.4359    0.0000 C   0  0
   13.5464  -13.0171    0.0000 C   0  0
   14.9874  -12.9927    0.0000 C   0  0
   15.7244  -12.6195    0.0000 C   0  0
   15.7686  -11.7964    0.0000 C   0  0
   15.0766  -11.3456    0.0000 C   0  0
   14.3386  -11.7239    0.0000 C   0  0
   14.2980  -12.5457    0.0000 C   0  0
   13.9480  -15.6992    0.0000 O   0  0
 11 12  1  0
 12 13  1  0
 13 14  1  0
 14 15  1  0
  7  8  1  0
 14 16  1  0
  8 11  2  0
 16 17  1  0
 17 18  1  0
  3  4  1  0
 10  9  2  0
  9  6  1  0
 10 11  1  0
 17 21  1  0
 18 19  1  0
 19  1  1  0
  1 20  1  0
 20 21  1  0
  4  5  1  0
  5  1  1  0
 22 23  2  0
  1  2  1  0
 23 24  1  0
 24 25  2  0
  6  7  2  0
 25 26  1  0
  2  3  1  0
 26 27  2  0
 27 22  1  0
  5 22  1  0
 10 15  1  0
  2 28  2  0
M  END