
          11280715492D 1   1.00000     0.00000     0

 33 38  0     0  0            999 V2000
   11.3643  -12.9858    0.0000 C   0  0  0  0  0  0           0  0  0
   11.0922  -13.7669    0.0000 C   0  0  0  0  0  0           0  0  0
   11.7510  -14.2670    0.0000 N   0  0  0  0  0  0           0  0  0
    9.9917  -12.3879    0.0000 C   0  0  0  0  0  0           0  0  0
   10.8264  -12.3637    0.0000 C   0  0  0  0  0  0           0  0  0
   11.0610  -11.5635    0.0000 C   0  0  0  0  0  0           0  0  0
   10.3723  -11.0929    0.0000 N   0  0  0  0  0  0           0  0  0
    9.7121  -11.6026    0.0000 C   0  0  0  0  0  0           0  0  0
   12.1911  -13.0032    0.0000 C   0  0  0  0  0  0           0  0  0
   12.4278  -13.7945    0.0000 C   0  0  0  0  0  0           0  0  0
   13.2298  -13.9838    0.0000 C   0  0  0  0  0  0           0  0  0
   13.7960  -13.3827    0.0000 C   0  0  0  0  0  0           0  0  0
   13.5545  -12.5896    0.0000 C   0  0  0  0  0  0           0  0  0
   12.7531  -12.4040    0.0000 C   0  0  0  0  0  0           0  0  0
    8.0791  -12.1953    0.0000 C   0  0  0  0  0  0           0  0  0
    7.2585  -12.2832    0.0000 C   0  0  0  0  0  0           0  0  0
    6.9258  -13.0422    0.0000 C   0  0  0  0  0  0           0  0  0
    7.4133  -13.7045    0.0000 C   0  0  0  0  0  0           0  0  0
   11.8380  -11.2860    0.0000 O   0  0  0  0  0  0           0  0  0
    8.9204  -11.3706    0.0000 O   0  0  0  0  0  0           0  0  0
    9.3795  -12.9422    0.0000 C   0  0  0  0  0  0           0  0  0
    8.5646  -12.8607    0.0000 C   0  0  0  0  0  0           0  0  0
    8.2354  -13.6105    0.0000 C   0  0  0  0  0  0           0  0  0
    9.5542  -13.7429    0.0000 C   0  0  0  0  0  0           0  0  0
    8.8478  -14.1553    0.0000 N   0  0  3  0  0  0           0  0  0
    8.8517  -14.9688    0.0000 C   0  0  0  0  0  0           0  0  0
    9.5605  -15.3760    0.0000 C   0  0  0  0  0  0           0  0  0
   10.2670  -14.9636    0.0000 C   0  0  3  0  0  0           0  0  0
   10.2646  -14.1439    0.0000 C   0  0  0  0  0  0           0  0  0
   10.9830  -15.3733    0.0000 C   0  0  0  0  0  0           0  0  0
   10.9862  -16.1984    0.0000 N   0  0  3  0  0  0           0  0  0
   11.7024  -16.6081    0.0000 C   0  0  0  0  0  0           0  0  0
   10.2734  -16.6137    0.0000 C   0  0  0  0  0  0           0  0  0
 22 15  2  0     0  0
  2  3  1  0     0  0
 15 16  1  0     0  0
  5  6  1  0     0  0
 16 17  2  0     0  0
  6  7  1  0     0  0
 17 18  1  0     0  0
 18 23  2  0     0  0
  7  8  1  0     0  0
  6 19  2  0     0  0
  8  4  1  0     0  0
  8 20  2  0     0  0
 21 22  1  0     0  0
  3 10  1  0     0  0
  9  1  1  0     0  0
  9 10  2  0     0  0
 22 23  1  0     0  0
 23 25  1  0     0  0
 24 21  2  0     0  0
 24 25  1  0     0  0
  4  5  2  0     0  0
 10 11  1  0     0  0
  1  2  2  0     0  0
 11 12  2  0     0  0
 12 13  1  0     0  0
 24 29  1  0     0  0
 25 26  1  0     0  0
 26 27  1  0     0  0
 27 28  1  0     0  0
 28 29  1  0     0  0
  1  5  1  0     0  0
 28 30  1  0     0  0
 13 14  2  0     0  0
 30 31  1  0     0  0
 14  9  1  0     0  0
 31 32  1  0     0  0
  4 21  1  0     0  0
 31 33  1  0     0  0
M  END