
          11280714572D 1   1.00000     0.00000     0

 48 53  0     1  0            999 V2000
    0.5167    0.1708    0.0000 C   0  0  0  0  0  0           0  0  0
    1.9542    0.1750    0.0000 N   0  0  3  0  0  0           0  0  0
    1.2375   -0.2375    0.0000 C   0  0  0  0  0  0           0  0  0
    2.6750   -0.2292    0.0000 C   0  0  0  0  0  0           0  0  0
    0.5167    1.0083    0.0000 C   0  0  0  0  0  0           0  0  0
    2.6792   -1.0625    0.0000 C   0  0  0  0  0  0           0  0  0
   -0.1958   -0.2417    0.0000 N   0  0  0  0  0  0           0  0  0
    1.9542    1.0125    0.0000 C   0  0  1  0  0  0           0  0  0
    1.2375   -1.0667    0.0000 C   0  0  0  0  0  0           0  0  0
    1.9542   -1.4792    0.0000 C   0  0  0  0  0  0           0  0  0
    1.2292    1.4333    0.0000 C   0  0  0  0  0  0           0  0  0
   -0.9208    1.0000    0.0000 C   0  0  0  0  0  0           0  0  0
   -0.9208    0.1708    0.0000 C   0  0  0  0  0  0           0  0  0
    3.4000   -1.4750    0.0000 C   0  0  0  0  0  0           0  0  0
    3.3875    0.1833    0.0000 O   0  0  0  0  0  0           0  0  0
   13.3792    1.0458    0.0000 N   0  0  3  0  0  0           0  0  0
    4.1000    1.4250    0.0000 C   0  0  0  0  0  0           0  0  0
    6.2417    1.0208    0.0000 C   0  0  0  0  0  0           0  0  0
    2.6667    1.4250    0.0000 C   0  0  0  0  0  0           0  0  0
    3.3875    1.0125    0.0000 O   0  0  0  0  0  0           0  0  0
    4.1000    2.2500    0.0000 O   0  0  0  0  0  0           0  0  0
    6.2417    0.1958    0.0000 O   0  0  0  0  0  0           0  0  0
    4.1125   -1.0542    0.0000 O   0  0  0  0  0  0           0  0  0
   12.6667    1.4500    0.0000 C   0  0  0  0  0  0           0  0  0
   11.9542    1.0333    0.0000 C   0  0  0  0  0  0           0  0  0
    6.9542    1.4333    0.0000 N   0  0  0  0  0  0           0  0  0
   11.2417    1.4458    0.0000 C   0  0  0  0  0  0           0  0  0
    4.8167    1.0208    0.0000 C   0  0  0  0  0  0           0  0  0
    5.5292    1.4333    0.0000 C   0  0  0  0  0  0           0  0  0
   10.5292    1.0250    0.0000 C   0  0  0  0  0  0           0  0  0
   -1.6333    1.4125    0.0000 C   0  0  0  0  0  0           0  0  0
    8.3875    1.4333    0.0000 C   0  0  0  0  0  0           0  0  0
    9.8167    1.4375    0.0000 O   0  0  0  0  0  0           0  0  0
   -1.6333   -0.2417    0.0000 C   0  0  0  0  0  0           0  0  0
   13.3792    0.2125    0.0000 C   0  0  0  0  0  0           0  0  0
   14.0917    1.4583    0.0000 C   0  0  0  0  0  0           0  0  0
   11.2417   -0.2042    0.0000 C   0  0  0  0  0  0           0  0  0
    7.6750    1.0208    0.0000 C   0  0  0  0  0  0           0  0  0
    3.4000   -2.3000    0.0000 C   0  0  0  0  0  0           0  0  0
   11.9542    0.2083    0.0000 C   0  0  0  0  0  0           0  0  0
    9.1042    1.0250    0.0000 C   0  0  0  0  0  0           0  0  0
   10.5292    0.2000    0.0000 C   0  0  0  0  0  0           0  0  0
   -2.3458    1.0000    0.0000 C   0  0  0  0  0  0           0  0  0
   14.8042    1.0458    0.0000 C   0  0  0  0  0  0           0  0  0
   14.0917   -0.1917    0.0000 C   0  0  0  0  0  0           0  0  0
   -2.3458    0.1708    0.0000 C   0  0  0  0  0  0           0  0  0
   14.8125    0.2208    0.0000 C   0  0  0  0  0  0           0  0  0
    1.9542    1.8375    0.0000 H   0  0  0  0  0  0           0  0  0
  2  3  1  0     0  0
  3  1  1  0     0  0
  4  2  1  0     0  0
  5  1  2  0     0  0
  6 10  2  0     0  0
  7  1  1  0     0  0
  8 11  1  0     0  0
  9  3  2  0     0  0
 10  9  1  0     0  0
 11  5  1  0     0  0
 12  5  1  0     0  0
 13  7  1  0     0  0
 14  6  1  0     0  0
 15  4  2  0     0  0
 16 24  1  0     0  0
 17 20  1  0     0  0
 18 29  1  0     0  0
 19  8  1  0     0  0
 20 19  1  0     0  0
 21 17  2  0     0  0
 22 18  2  0     0  0
 23 14  2  0     0  0
 24 25  1  0     0  0
 25 27  2  0     0  0
 26 18  1  0     0  0
 27 30  1  0     0  0
 28 17  1  0     0  0
 29 28  1  0     0  0
 30 33  1  0     0  0
 31 12  2  0     0  0
 32 38  1  0     0  0
 33 41  1  0     0  0
 34 13  2  0     0  0
 35 16  1  0     0  0
 36 16  1  0     0  0
 37 42  1  0     0  0
 38 26  1  0     0  0
 39 14  1  0     0  0
 40 37  2  0     0  0
 41 32  1  0     0  0
 42 30  2  0     0  0
 43 31  1  0     0  0
 44 36  1  0     0  0
 45 35  1  0     0  0
 46 34  1  0     0  0
 47 44  1  0     0  0
  8 48  1  6     0  0
 13 12  1  0     0  0
  8  2  1  0     0  0
 46 43  2  0     0  0
  4  6  1  0     0  0
 40 25  1  0     0  0
 47 45  1  0     0  0
M  END