
          05080814042D 1   1.00000     0.00000     0

 37 41  0     1  0            999 V2000
   -3.9357  -12.7738    0.0000 C   0  0  0  0  0  0           0  0  0
   -4.6465  -13.1887    0.0000 C   0  0  0  0  0  0           0  0  0
   -4.6395  -14.0150    0.0000 C   0  0  0  0  0  0           0  0  0
   -3.9256  -14.4185    0.0000 C   0  0  0  0  0  0           0  0  0
   -3.2224  -13.1810    0.0000 C   0  0  0  0  0  0           0  0  0
   -3.2164  -14.0087    0.0000 C   0  0  0  0  0  0           0  0  0
   -2.5005  -14.4151    0.0000 C   0  0  0  0  0  0           0  0  0
   -2.5126  -12.7597    0.0000 C   0  0  0  0  0  0           0  0  0
   -1.7922  -13.1706    0.0000 C   0  0  2  0  0  0           0  0  0
   -1.7876  -14.0002    0.0000 C   0  0  2  0  0  0           0  0  0
   -1.0709  -14.4088    0.0000 N   0  0  3  0  0  0           0  0  0
   -0.3540  -13.9923    0.0000 C   0  0  0  0  0  0           0  0  0
   -0.3586  -13.1627    0.0000 C   0  0  1  0  0  0           0  0  0
   -1.0800  -12.7496    0.0000 C   0  0  0  0  0  0           0  0  0
   -1.8000  -12.3417    0.0000 H   0  0  0  0  0  0           0  0  0
   -1.7958  -14.8250    0.0000 H   0  0  0  0  0  0           0  0  0
    0.3540  -12.7470    0.0000 C   0  0  0  0  0  0           0  0  0
    1.0703  -13.1563    0.0000 N   0  0  3  0  0  0           0  0  0
    0.3503  -11.9220    0.0000 O   0  0  0  0  0  0           0  0  0
    1.0680  -13.9845    0.0000 C   0  0  0  0  0  0           0  0  0
    1.7802  -14.3937    0.0000 C   0  0  0  0  0  0           0  0  0
    2.4953  -13.9815    0.0000 N   0  0  3  0  0  0           0  0  0
    2.4936  -13.1556    0.0000 C   0  0  0  0  0  0           0  0  0
    1.7768  -12.7418    0.0000 C   0  0  0  0  0  0           0  0  0
   -3.9397  -11.9488    0.0000 O   0  0  0  0  0  0           0  0  0
   -4.6561  -11.5398    0.0000 C   0  0  0  0  0  0           0  0  0
   -1.0675  -15.2338    0.0000 C   0  0  0  0  0  0           0  0  0
    3.2100  -14.3936    0.0000 C   0  0  0  0  0  0           0  0  0
    3.2061  -15.2177    0.0000 C   0  0  0  0  0  0           0  0  0
    3.9200  -15.6297    0.0000 C   0  0  0  0  0  0           0  0  0
    4.6352  -15.2166    0.0000 C   0  0  0  0  0  0           0  0  0
    4.6320  -14.3874    0.0000 C   0  0  0  0  0  0           0  0  0
    3.9175  -13.9792    0.0000 C   0  0  0  0  0  0           0  0  0
    5.3447  -13.9719    0.0000 C   0  0  3  0  0  0           0  0  0
    6.0542  -13.5542    0.0000 F   0  0  0  0  0  0           0  0  0
    5.7617  -14.6837    0.0000 F   0  0  0  0  0  0           0  0  0
    4.9292  -13.2592    0.0000 F   0  0  0  0  0  0           0  0  0
  7 10  1  0     0  0
 17 18  1  0     0  0
  9  8  1  0     0  0
 17 19  2  0     0  0
 18 20  1  0     0  0
  9 10  1  0     0  0
  3  4  2  0     0  0
  4  6  1  0     0  0
  5  6  2  0     0  0
  1  2  2  0     0  0
 18 24  1  0     0  0
 20 21  1  0     0  0
 21 22  1  0     0  0
 22 23  1  0     0  0
 23 24  1  0     0  0
  5  1  1  0     0  0
  1 25  1  0     0  0
  2  3  1  0     0  0
 25 26  1  0     0  0
  9 14  1  0     0  0
 11 27  1  0     0  0
 10 11  1  0     0  0
 22 28  1  0     0  0
 11 12  1  0     0  0
 28 29  2  0     0  0
 12 13  1  0     0  0
 29 30  1  0     0  0
 13 14  1  0     0  0
 30 31  2  0     0  0
 31 32  1  0     0  0
  9 15  1  6     0  0
 32 33  2  0     0  0
 33 28  1  0     0  0
  5  8  1  0     0  0
 32 34  1  0     0  0
 10 16  1  1     0  0
 34 35  1  0     0  0
  6  7  1  0     0  0
 34 36  1  0     0  0
 13 17  1  1     0  0
 34 37  1  0     0  0
M  END