
  SciTegic06051315212D

 80 90  0  0  0  0            999 V2000
    2.0921    0.5459    0.0000 O   0  0
    0.7700    1.5361    0.0000 O   0  0
    0.9643    3.1703    0.0000 O   0  0
    2.4783    3.8178    0.0000 O   0  0
    2.9476    1.6935    0.0000 O   0  0
    3.7515    3.6569    0.0000 O   0  0
    2.1909    1.3644    0.0000 C   0  0  2  0  0  0
    1.5299    1.8594    0.0000 C   0  0  1  0  0  0
    1.6254    2.6835    0.0000 C   0  0  2  0  0  0
    2.3853    3.0069    0.0000 C   0  0  1  0  0  0
    3.0463    2.5118    0.0000 C   0  0  1  0  0  0
    3.8004    2.8360    0.0000 C   0  0
    1.3280    0.2442    0.0000 C   0  0  2  0  0  0
    0.6869    0.7494    0.0000 O   0  0
   -0.0807    0.4476    0.0000 C   0  0
   -0.2072   -0.3719    0.0000 C   0  0
    1.2130   -0.5725    0.0000 C   0  0  1  0  0  0
    0.4465   -0.8832    0.0000 C   0  0  2  0  0  0
    0.5051   -1.7083    0.0000 C   0  0  1  0  0  0
    1.7453   -1.2055    0.0000 C   0  0  2  0  0  0
    1.3062   -1.9115    0.0000 C   0  0  1  0  0  0
    2.1372   -1.9388    0.0000 O   0  0
    2.2254   -0.5376    0.0000 C   0  0
    3.0438   -0.6194    0.0000 O   0  0
   -0.3217   -1.1968    0.0000 H   0  0
    1.9785   -0.2716    0.0000 H   0  0
   -0.1318   -2.2360    0.0000 O   0  0
   -0.9047   -1.9536    0.0000 C   0  0
   -1.5367   -2.4813    0.0000 C   0  0  1  0  0  0
   -1.0455   -1.1433    0.0000 O   0  0
    0.9782   -2.6745    0.0000 H   0  0
    2.8335    0.8555    0.0000 H   0  0
    1.5600   -6.9613    0.0000 O   0  0
    2.5625   -5.6506    0.0000 O   0  0
    4.1993   -5.8638    0.0000 O   0  0
    4.8305   -7.3852    0.0000 O   0  0
    2.6956   -7.8299    0.0000 O   0  0
    4.6527   -8.6564    0.0000 O   0  0
    2.3772   -7.0696    0.0000 C   0  0  2  0  0  0
    2.8784   -6.4142    0.0000 C   0  0  1  0  0  0
    3.6981   -6.5192    0.0000 C   0  0  2  0  0  0
    4.0141   -7.2827    0.0000 C   0  0  1  0  0  0
    3.5128   -7.9380    0.0000 C   0  0  1  0  0  0
    3.8280   -8.6958    0.0000 C   0  0
    1.2640   -6.1938    0.0000 C   0  0  2  0  0  0
    1.7799   -5.5585    0.0000 O   0  0
    1.4838   -4.7910    0.0000 C   0  0
    0.6721   -4.6589    0.0000 C   0  0
    0.4552   -6.0694    0.0000 C   0  0  1  0  0  0
    0.1533   -5.2993    0.0000 C   0  0  2  0  0  0
   -0.6736   -5.3485    0.0000 C   0  0  1  0  0  0
   -0.1899   -6.5944    0.0000 C   0  0  2  0  0  0
   -0.8849   -6.1473    0.0000 C   0  0  1  0  0  0
   -0.9229   -6.9779    0.0000 O   0  0
    0.4784   -7.0821    0.0000 C   0  0
    0.3872   -7.8996    0.0000 O   0  0
   -0.1560   -4.5313    0.0000 H   0  0
    0.7473   -6.8384    0.0000 H   0  0
   -1.2000   -4.7115    0.0000 O   0  0
   -0.9098   -3.9423    0.0000 C   0  0
   -1.4279   -3.3055    0.0000 C   0  0  2  0  0  0
   -0.0931   -3.8101    0.0000 O   0  0
   -1.6463   -5.8104    0.0000 H   0  0
    1.8567   -7.7061    0.0000 H   0  0
   -2.3138   -2.5382    0.0000 C   0  0  2  0  0  0
   -2.3138   -3.3607    0.0000 C   0  0  2  0  0  0
   -2.8874   -1.9609    0.0000 C   0  0
   -2.6781   -1.1657    0.0000 C   0  0
   -3.2605   -0.5844    0.0000 C   0  0
   -4.0519   -0.7971    0.0000 C   0  0
   -4.2642   -1.5964    0.0000 C   0  0
   -3.6833   -2.1742    0.0000 C   0  0
   -2.8875   -3.9410    0.0000 C   0  0
   -3.6875   -3.7266    0.0000 C   0  0
   -4.2694   -4.3074    0.0000 C   0  0
   -4.0583   -5.1029    0.0000 C   0  0
   -3.2541   -5.3143    0.0000 C   0  0
   -2.6771   -4.7320    0.0000 C   0  0
   -4.6327   -0.2162    0.0000 O   0  0
   -4.6323   -5.6853    0.0000 O   0  0
  6 12  1  0
 11  5  1  0
  5  7  1  0
  7  8  1  0
  8  9  1  0
  9 10  1  0
 10 11  1  0
 11 12  1  1
  7  1  1  0
  8  2  1  6
  9  3  1  1
 10  4  1  6
 18 16  1  0
 17 13  1  0
 13 14  1  0
 14 15  1  0
 15 16  2  0
 17 18  1  0
 18 19  1  0
 19 21  1  0
 20 17  1  0
 21 20  1  0
 22 21  1  0
 20 22  1  0
 20 23  1  6
 23 24  1  0
 18 25  1  1
 17 26  1  1
 19 27  1  1
 27 28  1  0
 29 28  1  1
 28 30  2  0
 21 31  1  6
 13  1  1  1
  7 32  1  6
 38 44  1  0
 43 37  1  0
 37 39  1  0
 39 40  1  0
 40 41  1  0
 41 42  1  0
 42 43  1  0
 43 44  1  1
 39 33  1  0
 40 34  1  6
 41 35  1  1
 42 36  1  6
 50 48  1  0
 49 45  1  0
 45 46  1  0
 46 47  1  0
 47 48  2  0
 49 50  1  0
 50 51  1  0
 51 53  1  0
 52 49  1  0
 53 52  1  0
 54 53  1  0
 52 54  1  0
 52 55  1  6
 55 56  1  0
 50 57  1  1
 49 58  1  1
 51 59  1  1
 59 60  1  0
 61 60  1  6
 60 62  2  0
 53 63  1  6
 45 33  1  1
 39 64  1  6
 65 66  1  0
 66 61  1  0
 61 29  1  0
 29 65  1  0
 67 68  2  0
 68 69  1  0
 69 70  2  0
 70 71  1  0
 71 72  2  0
 72 67  1  0
 65 67  1  6
 73 74  2  0
 74 75  1  0
 75 76  2  0
 76 77  1  0
 77 78  2  0
 78 73  1  0
 66 73  1  1
 70 79  1  0
 76 80  1  0
M  END