
  Mrv0541 04051115152D          

 17 16  0  0  0  0            999 V2000
   -2.4719   -0.2265    0.0000 C   0  0  0  0  0  0  0  0  0  0  0  0
   -1.7574    0.1860    0.0000 C   0  0  1  0  0  0  0  0  0  0  0  0
   -1.0429   -0.2265    0.0000 C   0  0  2  0  0  0  0  0  0  0  0  0
   -0.3285    0.1860    0.0000 C   0  0  1  0  0  0  0  0  0  0  0  0
    0.3860   -0.2265    0.0000 C   0  0  1  0  0  0  0  0  0  0  0  0
    1.1005    0.1860    0.0000 C   0  0  0  0  0  0  0  0  0  0  0  0
   -3.1864    0.1860    0.0000 O   0  0  0  0  0  0  0  0  0  0  0  0
   -2.4719   -1.0515    0.0000 O   0  0  0  0  0  0  0  0  0  0  0  0
   -1.7574    1.0110    0.0000 O   0  0  0  0  0  0  0  0  0  0  0  0
   -1.0429   -1.0515    0.0000 O   0  0  0  0  0  0  0  0  0  0  0  0
   -0.3285    1.0110    0.0000 O   0  0  0  0  0  0  0  0  0  0  0  0
    0.3860   -1.0515    0.0000 O   0  0  0  0  0  0  0  0  0  0  0  0
    1.8149   -0.2265    0.0000 O   0  0  0  0  0  0  0  0  0  0  0  0
    2.5294    0.1860    0.0000 P   0  0  0  0  0  0  0  0  0  0  0  0
    3.2439    0.5985    0.0000 O   0  0  0  0  0  0  0  0  0  0  0  0
    2.9419   -0.5285    0.0000 O   0  0  0  0  0  0  0  0  0  0  0  0
    2.1169    0.9004    0.0000 O   0  0  0  0  0  0  0  0  0  0  0  0
  1  2  1  0  0  0  0
  1  7  2  0  0  0  0
  1  8  1  0  0  0  0
  2  3  1  0  0  0  0
  2  9  1  6  0  0  0
  3  4  1  0  0  0  0
  3 10  1  6  0  0  0
  4  5  1  0  0  0  0
  4 11  1  6  0  0  0
  5  6  1  0  0  0  0
  5 12  1  1  0  0  0
  6 13  1  0  0  0  0
 13 14  1  0  0  0  0
 15 14  2  0  0  0  0
 16 14  1  0  0  0  0
 17 14  1  0  0  0  0
M  END