
  SciTegic09081514182D

102108  0  0  0  0            999 V2000
   -2.3155    0.7475    0.0000 C   0  0
   -1.0028    1.5132    0.0000 C   0  0
   -1.0028   -1.5132    0.0000 C   0  0
   -2.3155   -0.7475    0.0000 C   0  0
    0.2917   -0.7475    0.0000 C   0  0
    0.2917    0.7475    0.0000 C   0  0
    1.7138    1.2033    0.0000 C   0  0
    2.5889    0.0182    0.0000 C   0  0
    1.7138   -1.2033    0.0000 N   0  0
    4.0872    0.0320    0.0000 C   0  0
    0.8947    2.0803    0.0000 C   0  0
    3.1728    1.4912    0.0000 C   0  0
    3.6812    2.9033    0.0000 C   0  0
    5.1582    3.1699    0.0000 C   0  0
    5.6666    4.5820    0.0000 C   0  0
    4.8918    5.4984    0.0000 O   0  0
    4.8506   -1.2602    0.0000 C   0  0
    6.3513   -1.2462    0.0000 C   0  0
    7.1146   -2.5384    0.0000 C   0  0
    8.6154   -2.5245    0.0000 C   0  0
    9.3787   -3.8167    0.0000 C   0  0
   10.8361   -3.9375    0.0000 C   0  0
    8.7734   -5.1773    0.0000 N   0  3
    9.8967   -6.1614    0.0000 C   0  0
   11.1780   -5.3912    0.0000 C   0  0
   12.5012   -6.1062    0.0000 C   0  0
   12.5211   -7.6258    0.0000 C   0  0
   11.2398   -8.3960    0.0000 C   0  0
    9.9072   -7.6653    0.0000 C   0  0
    2.1855   -2.6254    0.0000 C   0  0
    3.3606   -2.8684    0.0000 C   0  0
   -3.6202    1.4892    0.0000 S   0  0
   -4.6551    0.8818    0.0000 O   0  0
   -3.6291    2.6892    0.0000 O   0  0
   -4.6637    2.0816    0.0000 O   0  0
    7.3093   -5.4951    0.0000 C   0  0
    6.5019   -4.6073    0.0000 C   0  0
   12.0115   -4.1790    0.0000 C   0  0
   10.4237   -2.8106    0.0000 C   0  0
   11.2762   -9.8963    0.0000 S   0  0
   10.2517  -10.5212    0.0000 O   0  5
   12.3294  -10.4715    0.0000 O   0  0
   11.3049  -11.0960    0.0000 O   0  0
    7.1436    4.8486    0.0000 N   0  0
   35.0731   27.8116    0.0000 C   0  0
   33.5873   28.0174    0.0000 N   0  0
   32.9539   26.6717    0.0000 C   0  0
   34.0135   25.6281    0.0000 N   0  0
   35.3365   26.3350    0.0000 N   0  0
   32.8722   29.3368    0.0000 C   0  0
   31.3858   29.4947    0.0000 C   0  0
   30.7780   30.8661    0.0000 C   0  0
   31.6618   32.0781    0.0000 C   0  0
   33.1533   31.9187    0.0000 N   0  3
   33.7611   30.5474    0.0000 C   0  0
   31.0565   33.4515    0.0000 O   0  0
   31.7649   34.4201    0.0000 C   0  0
   31.4770   26.4051    0.0000 C   0  0
   30.9685   24.9930    0.0000 O   0  0
   29.4916   24.7264    0.0000 C   0  0
   28.9831   23.3143    0.0000 C   0  0
   27.5062   23.0477    0.0000 O   0  0
   26.9977   21.6356    0.0000 C   0  0
   25.5208   21.3690    0.0000 C   0  0
   25.0123   19.9569    0.0000 O   0  0
   23.5353   19.6903    0.0000 C   0  0
   23.0269   18.2782    0.0000 C   0  0
   21.5499   18.0116    0.0000 O   0  0
   36.1134   28.8933    0.0000 N   0  0
   36.1686   30.3517    0.0000 C   0  0
   37.6657   30.2572    0.0000 C   0  0
   37.5711   28.7602    0.0000 C   0  0
   38.7892   31.2431    0.0000 O   0  0
   40.2108   30.7619    0.0000 C   0  0
   41.3398   31.7497    0.0000 C   0  0
   42.7596   31.2659    0.0000 C   0  0
   43.0506   29.7944    0.0000 C   0  0
   41.9218   28.8067    0.0000 C   0  0
   40.5019   29.2904    0.0000 C   0  0
   41.1070   32.9269    0.0000 Cl  0  0
   44.1865   29.4074    0.0000 F   0  0
   21.0415   16.5995    0.0000 C   0  0
   19.5645   16.3329    0.0000 C   0  0
   19.0561   14.9208    0.0000 O   0  0
   17.5791   14.6542    0.0000 C   0  0
   17.0706   13.2421    0.0000 C   0  0
   15.5937   12.9755    0.0000 O   0  0
   15.0852   11.5634    0.0000 C   0  0
   13.6083   11.2968    0.0000 C   0  0
   13.0998    9.8847    0.0000 O   0  0
   11.6229    9.6181    0.0000 C   0  0
   11.1144    8.2060    0.0000 C   0  0
    9.6375    7.9394    0.0000 O   0  0
    9.1290    6.5273    0.0000 C   0  0
    7.6520    6.2607    0.0000 C   0  0
   55.7436   -6.0617    0.0000 O   0  5
   55.7436   -7.2617    0.0000 C   0  0
   57.0436   -8.0117    0.0000 C   0  0
   54.7041   -7.8613    0.0000 O   0  0
   58.0830   -7.4120    0.0000 F   0  0
   58.0827   -8.6118    0.0000 F   0  0
   57.0436   -9.2117    0.0000 F   0  0
  1  2  2  0
  2  6  1  0
  5  3  1  0
  3  4  2  0
  4  1  1  0
  5  6  2  0
  6  7  1  0
  7  8  1  0
  8  9  1  0
  9  5  1  0
  8 10  2  0
  7 11  1  0
  7 12  1  0
 12 13  1  0
 13 14  1  0
 14 15  1  0
 15 16  2  0
 10 17  1  0
 17 18  2  0
 18 19  1  0
 19 20  2  0
 20 21  1  0
 21 22  1  0
 22 25  1  0
 24 23  1  0
 23 21  2  0
 24 25  2  0
 25 26  1  0
 26 27  2  0
 27 28  1  0
 28 29  2  0
 29 24  1  0
  9 30  1  0
 30 31  1  0
  1 32  1  0
 32 33  1  0
 32 34  2  0
 32 35  2  0
 23 36  1  0
 36 37  1  0
 22 38  1  0
 22 39  1  0
 28 40  1  0
 40 41  1  0
 40 42  2  0
 40 43  2  0
 15 44  1  0
 45 46  1  0
 46 47  1  0
 47 48  2  0
 48 49  1  0
 49 45  2  0
 50 51  2  0
 51 52  1  0
 52 53  2  0
 53 54  1  0
 54 55  2  0
 55 50  1  0
 46 50  1  0
 53 56  1  0
 56 57  1  0
 47 58  1  0
 58 59  1  0
 59 60  1  0
 60 61  1  0
 61 62  1  0
 62 63  1  0
 63 64  1  0
 64 65  1  0
 65 66  1  0
 66 67  1  0
 67 68  1  0
 69 70  1  0
 70 71  1  0
 71 72  1  0
 72 69  1  0
 45 69  1  0
 71 73  1  0
 73 74  1  0
 74 75  2  0
 75 76  1  0
 76 77  2  0
 77 78  1  0
 78 79  2  0
 79 74  1  0
 75 80  1  0
 77 81  1  0
 68 82  1  0
 82 83  1  0
 83 84  1  0
 84 85  1  0
 85 86  1  0
 86 87  1  0
 87 88  1  0
 88 89  1  0
 89 90  1  0
 90 91  1  0
 91 92  1  0
 92 93  1  0
 93 94  1  0
 94 95  1  0
 95 44  1  0
 96 97  1  0
 97 98  1  0
 97 99  2  0
 98100  1  0
 98101  1  0
 98102  1  0
M  CHG  4  23   1  41  -1  54   1  96  -1
M  END