
  SciTegic09261414532D

 15 16  0  0  0  0            999 V2000
    3.5050   -2.8113    0.0000 C   0  0
    2.7252   -3.0743    0.0000 N   0  0
    2.7369   -3.8954    0.0000 C   0  0
    3.5214   -4.1386    0.0000 S   0  0
    3.9955   -3.4680    0.0000 C   0  0
    2.0826   -4.3850    0.0000 C   0  0
    3.7480   -2.0311    0.0000 C   0  0
    4.5452   -1.8514    0.0000 F   0  0
    3.1939   -1.4305    0.0000 F   0  0
    3.9580   -1.2382    0.0000 F   0  0
    4.8139   -3.4532    0.0000 C   0  0
    5.3020   -4.1090    0.0000 N   0  0
    6.0767   -3.8463    0.0000 N   0  0
    6.0648   -3.0280    0.0000 C   0  0
    5.2827   -2.7879    0.0000 N   0  0
  2  3  2  0
  1  2  1  0
  3  4  1  0
  4  5  1  0
  5  1  2  0
  3  6  1  0
  1  7  1  0
  7  8  1  0
  7  9  1  0
  7 10  1  0
 12 13  1  0
 11 12  2  0
 13 14  1  0
 14 15  2  0
 15 11  1  0
  5 11  1  0
M  END