
          02060813482D 1   1.00000     0.00000     0

 39 42  0     0  0            999 V2000
   11.4319  -22.4708    0.0000 C   0  0  0  0  0  0           0  0  0
   11.4307  -23.2982    0.0000 C   0  0  0  0  0  0           0  0  0
   12.1456  -23.7110    0.0000 C   0  0  0  0  0  0           0  0  0
   12.8620  -23.2977    0.0000 C   0  0  0  0  0  0           0  0  0
   12.8591  -22.4672    0.0000 C   0  0  0  0  0  0           0  0  0
   12.1438  -22.0580    0.0000 C   0  0  0  0  0  0           0  0  0
   10.7159  -23.7101    0.0000 Cl  0  0  0  0  0  0           0  0  0
   12.1413  -21.2330    0.0000 C   0  0  0  0  0  0           0  0  0
   12.8545  -20.8184    0.0000 N   0  0  3  0  0  0           0  0  0
   12.8521  -19.9934    0.0000 C   0  0  0  0  0  0           0  0  0
   13.5653  -19.5788    0.0000 C   0  0  3  0  0  0           0  0  0
   12.1364  -19.5830    0.0000 O   0  0  0  0  0  0           0  0  0
   13.5721  -22.0520    0.0000 O   0  0  0  0  0  0           0  0  0
   13.5771  -23.7091    0.0000 C   0  0  0  0  0  0           0  0  0
   13.5735  -24.5344    0.0000 C   0  0  0  0  0  0           0  0  0
   14.2878  -24.9457    0.0000 C   0  0  0  0  0  0           0  0  0
   15.0026  -24.5320    0.0000 C   0  0  0  0  0  0           0  0  0
   14.9986  -23.7028    0.0000 C   0  0  0  0  0  0           0  0  0
   14.2838  -23.2952    0.0000 N   0  0  0  0  0  0           0  0  0
   15.7110  -23.2866    0.0000 O   0  0  0  0  0  0           0  0  0
   15.7183  -24.9425    0.0000 C   0  0  0  0  0  0           0  0  0
   16.4292  -25.3542    0.0000 N   0  0  0  0  0  0           0  0  0
   14.2887  -25.7707    0.0000 C   0  0  0  0  0  0           0  0  0
   13.5752  -26.1791    0.0000 C   0  0  0  0  0  0           0  0  0
   13.5758  -27.0033    0.0000 C   0  0  0  0  0  0           0  0  0
   14.2912  -27.4159    0.0000 C   0  0  0  0  0  0           0  0  0
   15.0076  -26.9981    0.0000 C   0  0  0  0  0  0           0  0  0
   15.0036  -26.1753    0.0000 C   0  0  0  0  0  0           0  0  0
   12.8614  -25.7655    0.0000 Cl  0  0  0  0  0  0           0  0  0
   15.7240  -27.4073    0.0000 C   0  0  3  0  0  0           0  0  0
   16.4333  -27.8167    0.0000 F   0  0  0  0  0  0           0  0  0
   16.1348  -26.6919    0.0000 F   0  0  0  0  0  0           0  0  0
   15.3185  -28.1258    0.0000 F   0  0  0  0  0  0           0  0  0
   13.5702  -21.2288    0.0000 C   0  0  0  0  0  0           0  0  0
   14.2757  -19.9919    0.0000 C   0  0  0  0  0  0           0  0  0
   14.9868  -19.5808    0.0000 C   0  0  0  0  0  0           0  0  0
   14.9886  -18.7555    0.0000 N   0  0  0  0  0  0           0  0  0
   14.2731  -18.3429    0.0000 C   0  0  0  0  0  0           0  0  0
   13.5558  -18.7557    0.0000 C   0  0  0  0  0  0           0  0  0
 19 14  1  0     0  0
  4  5  1  0     0  0
 18 20  2  0     0  0
  9 10  1  0     0  0
 17 21  1  0     0  0
  2  3  1  0     0  0
 21 22  3  0     0  0
 10 11  1  0     0  0
 16 23  1  0     0  0
  5  6  2  0     0  0
 23 24  2  0     0  0
 10 12  2  0     0  0
 24 25  1  0     0  0
  6  1  1  0     0  0
 25 26  2  0     0  0
  5 13  1  0     0  0
 26 27  1  0     0  0
  1  2  2  0     0  0
 27 28  2  0     0  0
 28 23  1  0     0  0
  4 14  1  0     0  0
 24 29  1  0     0  0
  2  7  1  0     0  0
 27 30  1  0     0  0
 14 15  2  0     0  0
 30 31  1  0     0  0
  3  4  2  0     0  0
 30 32  1  0     0  0
 15 16  1  0     0  0
 30 33  1  0     0  0
  6  8  1  0     0  0
  9 34  1  0     0  0
 11 35  1  0     0  0
 16 17  2  0     0  0
 17 18  1  0     0  0
  8  9  1  0     0  0
 18 19  1  0     0  0
 11 39  1  0     0  0
 35 36  1  0     0  0
 36 37  1  0     0  0
 37 38  1  0     0  0
 38 39  1  0     0  0
M  END