
  CDK    9/16/09,9:56

 14 13  0  0  0  0  0  0  0  0999 V2000
   -2.0042   -1.3125    0.0000 O   0  0  0  0  0  0  0  0  0  0  0  0
   -1.2917   -0.8958    0.0000 P   0  0  0  0  0  0  0  0  0  0  0  0
   -0.5792   -0.4792    0.0000 C   0  0  0  0  0  0  0  0  0  0  0  0
    0.1376   -0.8877    0.0000 C   0  0  0  0  0  0  0  0  0  0  0  0
    0.8498   -0.4712    0.0000 C   0  0  0  0  0  0  0  0  0  0  0  0
    0.1422   -1.7127    0.0000 C   0  0  0  0  0  0  0  0  0  0  0  0
    0.8452    0.3538    0.0000 C   0  0  0  0  0  0  0  0  0  0  0  0
    1.5573    0.7702    0.0000 C   0  0  0  0  0  0  0  0  0  0  0  0
    2.2745    0.3635    0.0000 O   0  0  0  0  0  0  0  0  0  0  0  0
    1.5532    1.5970    0.0000 O   0  0  0  0  0  0  0  0  0  0  0  0
   -0.5675   -2.1307    0.0000 O   0  0  0  0  0  0  0  0  0  0  0  0
    0.8614   -2.1228    0.0000 O   0  0  0  0  0  0  0  0  0  0  0  0
   -0.8752   -1.6080    0.0000 O   0  0  0  0  0  0  0  0  0  0  0  0
   -1.7081   -0.1837    0.0000 O   0  0  0  0  0  0  0  0  0  0  0  0
  3  4  1  0  0  0  0 
  7  8  1  0  0  0  0 
  4  5  1  0  0  0  0 
  8  9  1  0  0  0  0 
  8 10  2  0  0  0  0 
  2  3  1  0  0  0  0 
  4  6  1  0  0  0  0 
  6 11  1  0  0  0  0 
  6 12  2  0  0  0  0 
  1  2  1  0  0  0  0 
  2 13  1  0  0  0  0 
  5  7  1  0  0  0  0 
  2 14  2  0  0  0  0 
M  END