
  SciTegic09261414462D

 22 24  0  0  0  0            999 V2000
   15.4942  -19.7901    0.0000 N   0  0
   15.9742  -20.4464    0.0000 C   0  0
   15.4947  -21.1144    0.0000 N   0  0
   14.7217  -20.8601    0.0000 C   0  0
   14.0146  -21.2698    0.0000 N   0  0
   13.3027  -20.8602    0.0000 C   0  0
   13.3026  -20.0430    0.0000 N   0  0
   14.0138  -19.6333    0.0000 C   0  0
   14.7216  -20.0429    0.0000 C   0  0
   14.0125  -18.8171    0.0000 O   0  0
   16.7936  -20.4446    0.0000 S   0  0
   17.2004  -19.7367    0.0000 C   0  0
   18.0204  -19.7369    0.0000 C   0  0
   18.4318  -20.4462    0.0000 O   0  0
   18.4316  -19.0306    0.0000 C   0  0
   18.0234  -18.3208    0.0000 C   0  0
   18.4295  -17.6110    0.0000 C   0  0
   19.2512  -17.6123    0.0000 C   0  0
   19.6620  -18.3236    0.0000 C   0  0
   19.2514  -19.0279    0.0000 C   0  0
   12.5908  -21.2678    0.0000 N   0  0
   16.7913  -19.0293    0.0000 C   0  0
  1  2  1  0
  2  3  2  0
  3  4  1  0
  4  5  1  0
  5  6  2  0
  6  7  1  0
  7  8  1  0
  8  9  1  0
  1  9  1  0
  4  9  2  0
  8 10  2  0
 12 13  1  0
 13 14  2  0
 15 16  1  0
 16 17  2  0
 17 18  1  0
 18 19  2  0
 19 20  1  0
 15 20  2  0
 13 15  1  0
 11 12  1  0
  2 11  1  0
  6 21  1  0
 12 22  1  0
M  END