
          11280715122D 1   1.00000     0.00000     0

 33 36  0     0  0            999 V2000
    4.3750   -1.5667    0.0000 C   0  0  0  0  0  0           0  0  0
    4.3750   -0.7375    0.0000 C   0  0  0  0  0  0           0  0  0
    7.3792   -5.8917    0.0000 C   0  0  0  0  0  0           0  0  0
    6.8542   -7.1250    0.0000 N   0  0  0  0  0  0           0  0  0
    7.5625   -6.7042    0.0000 N   0  0  0  0  0  0           0  0  0
    3.6542   -1.9792    0.0000 N   0  0  0  0  0  0           0  0  0
    6.2375   -6.5917    0.0000 N   0  0  0  0  0  0           0  0  0
    6.5667   -5.8167    0.0000 N   0  0  0  0  0  0           0  0  0
    5.0875   -1.9750    0.0000 N   0  0  3  0  0  0           0  0  0
    7.9292   -5.2792    0.0000 C   0  0  0  0  0  0           0  0  0
    5.0917   -0.3167    0.0000 C   0  0  0  0  0  0           0  0  0
    7.9292   -4.4417    0.0000 C   0  0  0  0  0  0           0  0  0
    3.6542   -0.3250    0.0000 C   0  0  0  0  0  0           0  0  0
    2.9417   -1.5667    0.0000 C   0  0  0  0  0  0           0  0  0
    7.2250   -4.0417    0.0000 C   0  0  0  0  0  0           0  0  0
    5.0792   -2.8000    0.0000 C   0  0  0  0  0  0           0  0  0
    5.0917    0.5125    0.0000 O   0  0  0  0  0  0           0  0  0
    7.2167   -3.2125    0.0000 C   0  0  0  0  0  0           0  0  0
    6.5042   -4.4542    0.0000 C   0  0  0  0  0  0           0  0  0
    2.9417   -0.7375    0.0000 C   0  0  0  0  0  0           0  0  0
    5.8000   -3.2167    0.0000 C   0  0  0  0  0  0           0  0  0
    5.8167   -0.7292    0.0000 O   0  0  0  0  0  0           0  0  0
    5.7917   -4.0417    0.0000 C   0  0  0  0  0  0           0  0  0
    6.5042   -2.8000    0.0000 C   0  0  0  0  0  0           0  0  0
    2.2292   -1.9792    0.0000 O   0  0  0  0  0  0           0  0  0
    5.7917   -1.5667    0.0000 C   0  0  0  0  0  0           0  0  0
    8.6417   -5.6917    0.0000 C   0  0  0  0  0  0           0  0  0
    8.6417   -4.0417    0.0000 C   0  0  0  0  0  0           0  0  0
    1.5125   -1.5667    0.0000 C   0  0  0  0  0  0           0  0  0
    6.5042   -1.9792    0.0000 C   0  0  0  0  0  0           0  0  0
    9.3542   -4.4417    0.0000 C   0  0  0  0  0  0           0  0  0
    9.3625   -5.2792    0.0000 C   0  0  0  0  0  0           0  0  0
    7.2125   -1.5667    0.0000 C   0  0  0  0  0  0           0  0  0
  2  1  1  0     0  0
  3 10  1  0     0  0
  4  5  2  0     0  0
  5  3  1  0     0  0
  6  1  2  0     0  0
  7  8  1  0     0  0
  8  3  2  0     0  0
  9  1  1  0     0  0
 10 12  2  0     0  0
 11  2  1  0     0  0
 12 15  1  0     0  0
 13  2  2  0     0  0
 14  6  1  0     0  0
 15 18  2  0     0  0
 16  9  1  0     0  0
 17 11  2  0     0  0
 18 24  1  0     0  0
 19 23  2  0     0  0
 20 14  2  0     0  0
 21 16  1  0     0  0
 22 11  1  0     0  0
 23 21  1  0     0  0
 24 21  2  0     0  0
 25 14  1  0     0  0
 26  9  1  0     0  0
 27 10  1  0     0  0
 28 12  1  0     0  0
 29 25  1  0     0  0
 30 26  1  0     0  0
 31 28  2  0     0  0
 32 31  1  0     0  0
 33 30  1  0     0  0
 13 20  1  0     0  0
 19 15  1  0     0  0
 27 32  2  0     0  0
  7  4  1  0     0  0
M  END