
  SciTegic07291412072D

 28 30  0  0  0  0            999 V2000
    6.0722   -7.1002    0.0000 N   0  0
    6.8568   -7.3552    0.0000 C   0  0
    6.8568   -8.1802    0.0000 C   0  0
    5.8173   -6.3156    0.0000 C   0  0  2  0  0  0
    6.0722   -8.4351    0.0000 N   0  0
    5.5873   -7.7677    0.0000 C   0  0
    7.5713   -6.9427    0.0000 N   0  0
    7.5713   -8.5927    0.0000 C   0  0
    8.2858   -8.1802    0.0000 N   0  0
    3.6115   -5.0863    0.0000 P   0  0
    6.3022   -5.6482    0.0000 O   0  0
    5.0327   -6.0607    0.0000 C   0  0
    5.7751   -2.7984    0.0000 P   0  0
    5.0327   -5.2357    0.0000 C   0  0  1  0  0  0
    5.8173   -4.9807    0.0000 C   0  0  1  0  0  0
    8.2858   -7.3552    0.0000 C   0  0
    4.3652   -4.7508    0.0000 O   0  0
    6.0722   -4.1961    0.0000 C   0  0
    5.5202   -3.5830    0.0000 O   0  0
    2.8579   -5.4219    0.0000 O   0  0
    6.0301   -2.0138    0.0000 O   0  0
    7.5713   -9.4177    0.0000 N   0  0
    3.2760   -4.3326    0.0000 O   0  0
    3.9471   -5.8400    0.0000 O   0  0
    4.9905   -2.5435    0.0000 O   0  0
    6.5597   -3.0533    0.0000 O   0  0
    9.0003   -6.9427    0.0000 C   0  0
    8.2858   -9.8302    0.0000 C   0  0
  2  1  1  0
  3  2  2  0
  4  1  1  1
  5  6  2  0
  6  1  1  0
  7  2  1  0
  8  3  1  0
  9 16  1  0
 10 17  1  0
 11  4  1  0
 12  4  1  0
 13 19  1  0
 14 12  1  0
 15 11  1  0
 16  7  2  0
 14 17  1  6
 15 18  1  1
 19 18  1  0
 20 10  2  0
 21 13  2  0
 22  8  1  0
 23 10  1  0
 24 10  1  0
 25 13  1  0
 26 13  1  0
 27 16  1  0
 28 22  1  0
  5  3  1  0
 14 15  1  0
  8  9  2  0
M  END