
  SciTegic07291412072D

 58 64  0  0  0  0            999 V2000
    2.7877   -7.3466    0.0000 N   0  0
   -0.6956   -2.9625    0.0000 N   0  0
    0.0859   -3.2269    0.0000 C   0  0
   -0.2377   -1.6089    0.0000 C   0  0
    3.3941   -7.9059    0.0000 C   0  0
    2.1342   -6.1826    0.0000 C   0  0
    2.8838   -6.5272    0.0000 C   0  0
    0.5438   -1.8733    0.0000 N   0  0
    0.7056   -2.6823    0.0000 C   0  0  1  0  0  0
   -0.8574   -2.1535    0.0000 C   0  0  2  0  0  0
    1.9787   -7.5084    0.0000 C   0  0
    4.4787   -6.9757    0.0000 C   0  0
    1.5749   -6.7890    0.0000 C   0  0
    3.3736   -5.0933    0.0000 C   0  0
    4.3169   -6.1667    0.0000 C   0  0  1  0  0  0
    3.5354   -5.9023    0.0000 N   0  0
    1.4871   -2.9466    0.0000 C   0  0
    5.2602   -7.2400    0.0000 N   0  0
    1.6489   -3.7556    0.0000 C   0  0
    2.5922   -4.8290    0.0000 C   0  0  1  0  0  0
    1.9725   -5.3736    0.0000 C   0  0
    2.4304   -4.0200    0.0000 N   0  0
    3.2129   -8.7108    0.0000 O   0  0
   -1.4441   -2.6156    0.0000 C   0  0
   -0.3995   -0.7999    0.0000 O   0  0
    4.1818   -7.6605    0.0000 O   0  0
    0.2477   -4.0359    0.0000 O   0  0
   -1.5868   -1.8672    0.0000 C   0  0
    5.4220   -8.0490    0.0000 C   0  0
    4.9366   -5.6221    0.0000 C   0  0
    3.8590   -7.5203    0.0000 O   0  0
    3.5549   -4.2885    0.0000 O   0  0
    1.0292   -4.3002    0.0000 O   0  0
    2.4252   -8.9563    0.0000 C   0  0
   -1.3044   -1.5770    0.0000 C   0  0
   -2.2834   -2.9745    0.0000 C   0  0
   -2.3906   -2.2191    0.0000 C   0  0
   -1.5491   -0.9711    0.0000 C   0  0
    6.2035   -8.3134    0.0000 C   0  0
    4.7748   -4.8131    0.0000 C   0  0
    1.5577   -8.2178    0.0000 C   0  0
    5.8799   -6.6954    0.0000 C   0  0
    0.7499   -6.7790    0.0000 C   0  0
    2.1798   -8.1686    0.0000 C   0  0
    2.6707   -9.7439    0.0000 C   0  0
    1.6376   -9.2017    0.0000 C   0  0
    6.3653   -9.1224    0.0000 C   0  0
    5.3945   -4.2685    0.0000 C   0  0
    3.9933   -4.5487    0.0000 C   0  0
    6.8232   -7.7688    0.0000 C   0  0
    0.7327   -8.2079    0.0000 C   0  0
    0.3289   -7.4885    0.0000 C   0  0
    5.2327   -3.4595    0.0000 C   0  0
    3.8315   -3.7398    0.0000 C   0  0
    7.1468   -9.3867    0.0000 C   0  0
    7.6047   -8.0332    0.0000 C   0  0
    4.4512   -3.1951    0.0000 C   0  0
    7.7665   -8.8421    0.0000 C   0  0
  2  3  1  0
  3  9  1  0
  4  8  1  0
  5  1  1  0
  6  7  2  0
  7  1  1  0
  8  9  1  0
  9 17  1  1
 10  4  1  1
 11  1  1  0
 15 12  1  1
 13 11  2  0
 14 20  1  0
 15 16  1  0
 16 14  1  0
 17 19  1  0
 18 12  1  0
 19 22  1  0
 20 21  1  1
 21  6  1  0
 22 20  1  0
 23  5  1  0
 24  2  1  0
 25  4  2  0
 26  5  2  0
 27  3  2  0
 28 10  1  0
 29 18  1  0
 30 15  1  0
 31 12  2  0
 32 14  2  0
 33 19  2  0
 34 23  1  0
 35 24  1  0
 36 24  1  0
 37 28  1  0
 38 28  1  0
 39 29  1  0
 40 30  1  0
 41 11  1  0
 42 18  1  0
 43 13  1  0
 44 34  1  0
 45 34  1  0
 46 34  1  0
 47 39  1  0
 48 40  2  0
 49 40  1  0
 50 39  2  0
 51 41  2  0
 52 51  1  0
 53 48  1  0
 54 49  2  0
 55 47  2  0
 56 50  1  0
 57 54  1  0
 58 56  2  0
 13  6  1  0
 52 43  2  0
 10  2  1  0
 57 53  2  0
 38 35  1  0
 37 36  1  0
 55 58  1  0
M  END