
  SciTegic10191216002D

 31 36  0  0  0  0            999 V2000
   -3.8634  -19.0515    0.0000 C   0  0
   -3.2219  -18.3675    0.0000 C   0  0
   -3.0586  -18.8264    0.0000 C   0  0
   -2.5101  -18.6302    0.0000 C   0  0
   -2.3055  -19.1292    0.0000 C   0  0
   -1.7619  -18.4447    0.0000 C   0  0
   -3.0654  -17.9775    0.0000 C   0  0
   -2.5044  -17.3152    0.0000 C   0  0
   -3.2264  -17.5716    0.0000 C   0  0
   -1.7561  -17.6253    0.0000 C   0  0
   -2.5096  -16.4877    0.0000 C   0  0
   -1.7974  -16.0705    0.0000 N   0  0
   -1.0800  -16.4786    0.0000 C   0  0
   -1.0748  -17.3041    0.0000 O   0  0
   -0.3678  -16.0614    0.0000 C   0  0
    0.3470  -16.4702    0.0000 C   0  0
    1.0587  -16.0537    0.0000 C   0  0
    0.3315  -14.8194    0.0000 C   0  0
    0.3234  -13.9940    0.0000 C   0  0
    1.0340  -13.5743    0.0000 N   0  0
    1.7521  -13.9820    0.0000 C   0  0
    2.4608  -13.5658    0.0000 C   0  0
    1.7382  -12.3322    0.0000 C   0  0
    1.0233  -12.7501    0.0000 C   0  0
    0.3511  -17.2957    0.0000 Cl  0  0
    2.4471  -11.9145    0.0000 C   0  0
    3.1724  -13.1485    0.0000 C   0  0
    3.1655  -12.3209    0.0000 N   0  0
    1.7426  -13.1526    0.0000 O   0  0
   -0.3773  -15.2383    0.0000 C   0  0
    1.0539  -15.2274    0.0000 C   0  0
  3  5  1  0
 13 15  1  0
  4  6  1  0
 15 16  2  0
  5  6  1  0
 16 17  1  0
  7  8  1  0
 17 31  2  0
  3  7  1  0
 31 18  1  0
  2  9  1  0
 18 30  2  0
 30 15  1  0
  6 10  1  0
 18 19  1  0
 10  8  1  0
 19 20  1  0
 20 21  1  0
  8  9  1  0
  8 11  1  0
  1  2  1  0
 20 24  1  0
 22 21  1  0
 23 24  1  0
 11 12  1  0
 16 25  1  0
  1  3  1  0
 23 26  1  0
 12 13  1  0
 22 27  1  0
 27 28  1  0
  2  4  1  0
 26 28  1  0
 13 14  2  0
 22 29  1  0
 23 29  1  0
M  END