
          11280715292D 1   1.00000     0.00000     0

 15 16  0     0  0            999 V2000
    4.4667   -2.3500    0.0000 N   0  0  3  0  0  0           0  0  0
    3.6792   -2.6042    0.0000 C   0  0  0  0  0  0           0  0  0
    4.9542   -3.0167    0.0000 C   0  0  0  0  0  0           0  0  0
    4.4667   -3.6917    0.0000 C   0  0  0  0  0  0           0  0  0
    3.6750   -3.4292    0.0000 C   0  0  0  0  0  0           0  0  0
    2.9625   -2.1917    0.0000 C   0  0  0  0  0  0           0  0  0
    4.7250   -1.5625    0.0000 C   0  0  0  0  0  0           0  0  0
    2.9625   -3.8417    0.0000 C   0  0  0  0  0  0           0  0  0
    2.2500   -2.6042    0.0000 C   0  0  0  0  0  0           0  0  0
    2.2500   -3.4292    0.0000 C   0  0  0  0  0  0           0  0  0
    5.5292   -1.3917    0.0000 C   0  0  0  0  0  0           0  0  0
    5.7417   -0.5917    0.0000 C   0  0  3  0  0  0           0  0  0
    1.5375   -2.1917    0.0000 C   0  0  0  0  0  0           0  0  0
    6.5417   -0.3750    0.0000 C   0  0  0  0  0  0           0  0  0
    5.1542   -0.0125    0.0000 C   0  0  0  0  0  0           0  0  0
  2  1  1  0     0  0
  3  1  1  0     0  0
  4  3  2  0     0  0
  5  2  1  0     0  0
  6  2  2  0     0  0
  7  1  1  0     0  0
  8  5  2  0     0  0
  9  6  1  0     0  0
 10  9  2  0     0  0
 11  7  1  0     0  0
 12 11  1  0     0  0
 13  9  1  0     0  0
 14 12  1  0     0  0
 15 12  1  0     0  0
  5  4  1  0     0  0
 10  8  1  0     0  0
M  END