
  SciTegic12231509382D

 21 22  0  0  0  0            999 V2000
    1.9944    1.3417    0.0000 C   0  0
    1.9932    0.5143    0.0000 C   0  0
    2.7081    0.1015    0.0000 N   0  3
    3.4245    0.5148    0.0000 C   0  0
    3.4216    1.3453    0.0000 C   0  0
    2.7063    1.7545    0.0000 C   0  0
    2.7079   -0.7235    0.0000 C   0  0
    3.4222   -1.1362    0.0000 O   0  0
    4.1368   -0.7239    0.0000 C   0  0
    4.8512   -1.1366    0.0000 N   0  3
    4.8470   -1.9594    0.0000 C   0  0
    5.5605   -2.3720    0.0000 C   0  0
    6.2761   -1.9596    0.0000 C   0  0
    6.2737   -1.1304    0.0000 C   0  0
    5.5595   -0.7215    0.0000 C   0  0
    2.7038    2.5795    0.0000 C   0  0
    3.4170    2.9941    0.0000 N   0  0
    1.9881    2.9898    0.0000 O   0  0
    5.5554    0.1035    0.0000 C   0  0
    6.2678    0.5196    0.0000 N   0  0
    6.2637    1.3446    0.0000 O   0  0
  5  6  2  0
  6  1  1  0
  3  7  1  0
  7  8  1  0
  8  9  1  0
  9 10  1  0
 10 11  2  0
 11 12  1  0
 12 13  2  0
 13 14  1  0
 14 15  2  0
 15 10  1  0
  1  2  2  0
  6 16  1  0
 16 17  1  0
  2  3  1  0
 16 18  2  0
 15 19  1  0
  3  4  2  0
 19 20  2  0
 20 21  1  0
  4  5  1  0
M  CHG  2   3   1  10   1
M  END