
  SciTegic11201309402D

 24 27  0  0  1  0            999 V2000
    0.2925   -9.3487    0.0000 C   0  0
    0.2986   -8.0126    0.0000 C   0  0  2  0  0  0
   -0.1867   -8.6786    0.0000 C   0  0
    1.0843   -8.2726    0.0000 C   0  0  1  0  0  0
    1.0783   -9.0977    0.0000 N   0  0
    1.8612   -9.3584    0.0000 C   0  0
    2.3511   -8.6943    0.0000 C   0  0
    1.8709   -8.0234    0.0000 C   0  0
    0.0464   -7.2271    0.0000 C   0  0
   -0.7600   -7.0528    0.0000 N   0  0
   -1.0123   -6.2673    0.0000 C   0  0
   -1.8186   -6.0931    0.0000 C   0  0
   -0.4581   -5.6561    0.0000 O   0  0
   -2.0661   -5.3064    0.0000 C   0  0
   -2.8716   -5.1319    0.0000 C   0  0
   -3.4267   -5.7435    0.0000 C   0  0
   -2.3656   -6.7029    0.0000 C   0  0
   -3.1745   -6.5300    0.0000 N   0  0
   -3.5889   -7.2459    0.0000 C   0  0
   -3.0361   -7.8613    0.0000 C   0  0
   -2.2801   -7.5256    0.0000 N   0  0
   -3.1235   -4.3463    0.0000 Cl  0  0
   -4.4095   -7.3312    0.0000 C   0  0
    1.0907   -7.2726    0.0000 H   0  0
  4  2  1  0
 10 11  1  0
  2  3  1  0
 11 12  1  0
  3  1  1  0
 11 13  2  0
  5  6  1  0
 12 14  2  0
  6  7  1  0
 14 15  1  0
  7  8  1  0
 15 16  2  0
 16 18  1  0
 17 12  1  0
 17 18  1  0
  4  8  1  0
  4  5  1  0
  1  5  1  0
  2  9  1  1
 18 19  1  0
 19 20  2  0
 20 21  1  0
 21 17  2  0
 15 22  1  0
  9 10  1  0
 19 23  1  0
  4 24  1  1
M  END