
  SciTegic01161211252D

 41 43  0  0  0  0            999 V2000
    4.6000   -3.7542    0.0000 S   0  0
    1.9625   -4.3667    0.0000 S   0  0
    6.7625   -2.5167    0.0000 S   0  0
    6.6375    0.5458    0.0000 S   0  0
   -0.8500   -1.8417    0.0000 S   0  0
    2.7125   -1.4167    0.0000 O   0  0
    1.9917   -2.6542    0.0000 C   0  0
    2.0000   -1.8292    0.0000 C   0  0
    3.4250   -2.6667    0.0000 C   0  0  1  0  0  0
    1.2792   -3.0792    0.0000 C   0  0
    3.4250   -1.8292    0.0000 C   0  0  2  0  0  0
    5.5667   -1.4292    0.0000 C   0  0
    2.7125   -3.0792    0.0000 C   0  0
    5.5750   -0.6042    0.0000 C   0  0
    4.1375   -3.0792    0.0000 O   0  0
    1.2875   -3.9042    0.0000 O   0  0
    6.2875   -1.8417    0.0000 O   0  0
    4.1417   -1.4292    0.0000 C   0  0
    6.2875   -0.1917    0.0000 O   0  0
    1.2792   -1.4167    0.0000 C   0  0
    0.5667   -1.8292    0.0000 C   0  0
    0.5667   -2.6667    0.0000 C   0  0
    4.8542   -1.8417    0.0000 C   0  0
   -0.1458   -1.4292    0.0000 O   0  0
    6.0917   -3.0042    0.0000 O   0  0
    7.3875    0.1958    0.0000 O   0  0
    1.5000   -5.0542    0.0000 O   0  0
    3.9250   -4.2292    0.0000 O   0  0
   -1.2833   -1.1417    0.0000 O   0  0
    7.4375   -2.0417    0.0000 O   0  0
    5.8917    0.9083    0.0000 O   0  0
    5.2875   -3.2917    0.0000 O   0  0
    5.0750   -4.4417    0.0000 O   0  0
    6.9875    1.2958    0.0000 O   0  0
    2.6500   -4.8292    0.0000 O   0  0
    2.4375   -3.6792    0.0000 O   0  0
    7.2500   -3.1917    0.0000 O   0  0
   -1.5583   -2.2792    0.0000 O   0  0
   -0.4250   -2.5542    0.0000 O   0  0
    4.8542   -0.1917    0.0000 C   0  0
    4.1417   -0.6042    0.0000 C   0  0
  2 16  1  0
  3 17  1  0
  4 19  1  0
  5 24  1  0
  6 11  1  0
  7 13  1  0
  8  7  1  0
  9 15  1  6
 10  7  2  0
 11  9  1  0
 12 23  1  0
 13  9  1  0
 14 40  1  0
 15  1  1  0
 16 10  1  0
 17 12  1  0
 11 18  1  1
 19 14  1  0
 20  8  2  0
 21 22  2  0
 22 10  1  0
 23 18  2  0
 24 21  1  0
 25  3  1  0
 26  4  1  0
 27  2  1  0
 28  1  1  0
 29  5  1  0
 30  3  2  0
 31  4  2  0
 32  1  2  0
 33  1  2  0
 34  4  2  0
 35  2  2  0
 36  2  2  0
 37  3  2  0
 38  5  2  0
 39  5  2  0
 40 41  2  0
 41 18  1  0
  8  6  1  0
 20 21  1  0
 14 12  2  0
M  END