
  SciTegic01161211252D

 42 43  0  0  0  0            999 V2000
    1.0457  -16.0877    0.0000 C   0  0  1  0  0  0
    1.0457  -16.9168    0.0000 C   0  0  2  0  0  0
    1.7578  -17.3271    0.0000 C   0  0  2  0  0  0
    2.4741  -16.9168    0.0000 C   0  0
    2.4741  -16.0877    0.0000 C   0  0  2  0  0  0
    1.7578  -15.6689    0.0000 O   0  0
    3.1862  -16.5043    0.0000 O   0  0
    2.8795  -15.3727    0.0000 C   0  0
    3.7085  -15.3614    0.0000 O   0  0
    2.4615  -14.6585    0.0000 O   0  5
    0.3282  -15.6784    0.0000 C   0  0  2  0  0  0
   -0.3899  -16.0940    0.0000 C   0  0  2  0  0  0
   -1.8155  -16.9271    0.0000 C   0  0
   -2.5336  -17.3428    0.0000 C   0  0
   -1.8192  -16.0981    0.0000 O   0  0
   -3.2461  -16.9278    0.0000 C   0  0
   -3.9636  -17.3425    0.0000 C   0  0
   -3.9606  -18.1729    0.0000 C   0  0
   -3.2353  -18.5818    0.0000 C   0  0
   -2.5266  -18.1637    0.0000 C   0  0
    0.3267  -17.3308    0.0000 N   0  0
   -0.3900  -16.9200    0.0000 C   0  0
    1.0244  -15.2631    0.0000 H   0  0
    3.1815  -17.3292    0.0000 C   0  0
    3.8934  -17.7458    0.0000 C   0  0
    3.8841  -18.5695    0.0000 C   0  0
    4.5953  -18.9859    0.0000 C   0  0
    4.6034  -17.3356    0.0000 C   0  0
   -4.6721  -18.5901    0.0000 Cl  0  0
    5.3151  -17.7484    0.0000 C   0  0
    5.3097  -18.5749    0.0000 C   0  0
    4.6041  -16.5107    0.0000 F   0  0
    6.0312  -17.3389    0.0000 F   0  0
    0.3258  -18.1557    0.0000 S   0  0
    1.1503  -18.1518    0.0000 O   0  0
    0.3212  -18.9767    0.0000 O   0  0
   -0.4995  -18.1476    0.0000 C   0  0
    4.7661  -14.9857    0.0000 Na  0  3
    0.3245  -14.8494    0.0000 O   0  0
   -1.1080  -15.6809    0.0000 O   0  0
   -1.1007  -17.3390    0.0000 N   0  0
    1.7578  -18.1520    0.0000 O   0  0
 13 14  1  0
 13 15  2  0
 14 16  2  0
 16 17  1  0
 17 18  2  0
 18 19  1  0
 19 20  2  0
 20 14  1  0
  2 21  1  1
  1 23  1  1
  7 24  1  0
 24 25  1  0
  1  2  1  0
 25 26  2  0
  1  6  1  0
 26 27  1  0
 27 31  2  0
  2  3  1  0
 30 28  2  0
 28 25  1  0
  3  4  1  0
 18 29  1  0
  4  5  1  0
  5  6  1  0
 30 31  1  0
  5  7  1  0
 28 32  1  0
  5  8  1  1
 30 33  1  0
  8  9  2  0
 21 34  1  0
  8 10  1  0
 34 35  2  0
  1 11  1  0
 34 36  2  0
 34 37  1  0
 11 12  1  0
 12 22  1  0
 12 40  1  1
 22 41  1  0
 41 13  1  0
 11 39  1  6
  3 42  1  6
M  CHG  2  10  -1  38   1
M  END