
          11280715432D 1   1.00000     0.00000     0

 21 22  0     1  0            999 V2000
   -0.4958   -0.9292    0.0000 C   0  0  0  0  0  0           0  0  0
    0.5792   -0.1542    0.0000 C   0  0  0  0  0  0           0  0  0
   -0.0833    0.3333    0.0000 C   0  0  0  0  0  0           0  0  0
    0.3292   -0.9292    0.0000 N   0  0  0  0  0  0           0  0  0
   -0.7458   -0.1417    0.0000 S   0  0  0  0  0  0           0  0  0
   -0.9958   -1.5917    0.0000 N   0  0  0  0  0  0           0  0  0
   -1.8083   -1.4917    0.0000 C   0  0  0  0  0  0           0  0  0
   -0.0833    1.1625    0.0000 C   0  0  3  0  0  0           0  0  0
    1.3375    0.1833    0.0000 C   0  0  0  0  0  0           0  0  0
   -2.3083   -2.1500    0.0000 O   0  0  0  0  0  0           0  0  0
   -2.1333   -0.7375    0.0000 C   0  0  1  0  0  0           0  0  0
   -2.9583   -0.6375    0.0000 N   0  0  0  0  0  0           0  0  0
   -0.0958    1.9875    0.0000 C   0  0  0  0  0  0           0  0  0
    0.7375    1.1708    0.0000 C   0  0  0  0  0  0           0  0  0
   -0.9083    1.1583    0.0000 C   0  0  0  0  0  0           0  0  0
    1.4292    1.0000    0.0000 C   0  0  0  0  0  0           0  0  0
    2.0042   -0.3042    0.0000 C   0  0  0  0  0  0           0  0  0
   -1.6458   -0.0792    0.0000 C   0  0  0  0  0  0           0  0  0
    2.7542    0.0333    0.0000 C   0  0  0  0  0  0           0  0  0
    2.1792    1.3333    0.0000 C   0  0  0  0  0  0           0  0  0
    2.8417    0.8458    0.0000 C   0  0  0  0  0  0           0  0  0
  2  4  1  0     0  0
  3  5  1  0     0  0
  4  1  2  0     0  0
  5  1  1  0     0  0
  6  1  1  0     0  0
  7  6  1  0     0  0
  8  3  1  0     0  0
  9  2  1  0     0  0
 10  7  2  0     0  0
 11  7  1  0     0  0
 12 11  1  0     0  0
 13  8  1  0     0  0
 14  8  1  0     0  0
 15  8  1  0     0  0
 16  9  1  0     0  0
 17  9  2  0     0  0
 11 18  1  1     0  0
 19 17  1  0     0  0
 20 16  2  0     0  0
 21 19  2  0     0  0
  3  2  2  0     0  0
 21 20  1  0     0  0
M  END