
  SciTegic12231509382D

 22 25  0  0  0  0            999 V2000
    5.3074    1.0267    0.0000 O   0  0
    5.6045   -0.3710    0.0000 N   0  0
    2.6064   -1.7059    0.0000 N   0  0
    6.6664    0.5851    0.0000 N   0  0
    7.9833    2.3259    0.0000 N   0  0
    4.8199   -0.6259    0.0000 C   0  0
    4.8199   -1.4509    0.0000 C   0  0
    3.3910   -1.4509    0.0000 C   0  0
    3.3910   -0.6259    0.0000 C   0  0
    4.1054   -0.2134    0.0000 C   0  0
    4.1054   -1.8634    0.0000 C   0  0
    5.6045   -1.7059    0.0000 C   0  0
    6.0895   -1.0384    0.0000 C   0  0
    5.8595    0.4136    0.0000 C   0  0
    2.6064   -0.3710    0.0000 C   0  0
    2.1214   -1.0384    0.0000 C   0  0
    6.9214    1.3698    0.0000 C   0  0
    2.3514   -2.4905    0.0000 C   0  0
    7.7284    1.5413    0.0000 C   0  0
    6.3694    1.9829    0.0000 C   0  0
    6.6243    2.7675    0.0000 C   0  0
    7.4313    2.9390    0.0000 C   0  0
  1 14  2  0
  2  6  1  0
  2 13  1  0
  2 14  1  0
  3  8  1  0
  3 16  1  0
  3 18  1  0
  4 14  1  0
  4 17  1  0
  5 19  2  0
  5 22  1  0
  6  7  2  0
  6 10  1  0
  7 11  1  0
  7 12  1  0
  8  9  1  0
  8 11  2  0
  9 10  2  0
  9 15  1  0
 12 13  1  0
 15 16  2  0
 17 19  1  0
 17 20  2  0
 20 21  1  0
 21 22  2  0
M  END