
  SciTegic05171617262D

 33 38  0  0  0  0            999 V2000
    8.7497   -0.1356    0.0000 C   0  0
    7.5708   -0.3597    0.0000 N   0  0
    6.9284   -1.7181    0.0000 C   0  0
    5.4674   -1.5291    0.0000 C   0  0
    5.1748   -0.0647    0.0000 C   0  0
    3.8784    0.6967    0.0000 C   0  0
    2.5686   -0.0361    0.0000 C   0  0
    1.2785    0.7306    0.0000 N   0  0
    1.2785    2.2729    0.0000 C   0  0
    2.3164    2.8752    0.0000 O   0  0
    0.0000    3.0035    0.0000 C   0  0
   -1.2988    2.2729    0.0000 C   0  0
   -1.2988    0.7306    0.0000 C   0  0
    0.0000    0.0000    0.0000 C   0  0
   -1.2988   -0.7509    0.0000 C   0  0
   -1.2988   -2.2526    0.0000 C   0  0
    0.0000   -3.0238    0.0000 N   0  0
    1.2785   -2.2526    0.0000 C   0  0
    1.2785   -0.7509    0.0000 C   0  0
    0.0052   -4.5245    0.0000 C   0  0
    1.2944   -5.2850    0.0000 C   0  0
    1.2697   -6.7977    0.0000 N   0  0
   -0.0345   -7.5327    0.0000 C   0  0
   -0.0499   -9.0297    0.0000 C   0  0
   -1.3541   -9.7646    0.0000 C   0  0
   -2.6430   -9.0026    0.0000 C   0  0
   -2.6276   -7.5056    0.0000 C   0  0
   -1.3234   -6.7707    0.0000 C   0  0
   -1.3080   -5.2737    0.0000 N   0  0
    3.9080    2.2140    0.0000 C   0  0
    5.2147    2.9405    0.0000 C   0  0
    6.5218    2.1652    0.0000 C   0  0
    6.4815    0.6618    0.0000 C   0  0
  1  2  1  0
  2  3  1  0
  3  4  2  0
  4  5  1  0
  5  6  2  0
  6  7  1  0
  7  8  1  0
  8  9  1  0
  9 10  2  0
  9 11  1  0
 11 12  1  0
 12 13  1  0
 13 14  1  0
  8 14  1  0
 14 15  1  0
 15 16  1  0
 16 17  1  0
 17 18  1  0
 18 19  1  0
 14 19  1  0
 17 20  1  0
 20 21  2  0
 21 22  1  0
 22 23  2  0
 23 24  1  0
 24 25  2  0
 25 26  1  0
 26 27  2  0
 27 28  1  0
 23 28  1  0
 28 29  2  0
 20 29  1  0
  6 30  1  0
 30 31  2  0
 31 32  1  0
 32 33  2  0
  2 33  1  0
  5 33  1  0
M  END