
          02060813462D 1   1.00000     0.00000     0

 14 14  0     0  0            999 V2000
    9.6298  -14.3257    0.0000 C   0  0  0  0  0  0           0  0  0
    9.6284  -15.1519    0.0000 C   0  0  0  0  0  0           0  0  0
   10.3402  -15.5640    0.0000 C   0  0  0  0  0  0           0  0  0
   11.0583  -15.1514    0.0000 C   0  0  0  0  0  0           0  0  0
   11.0552  -14.3218    0.0000 C   0  0  0  0  0  0           0  0  0
   10.3383  -13.9136    0.0000 C   0  0  0  0  0  0           0  0  0
   11.7663  -13.9063    0.0000 C   0  0  0  0  0  0           0  0  0
   11.7623  -13.0829    0.0000 N   0  0  0  0  0  0           0  0  0
    8.9147  -15.5626    0.0000 N   0  3  0  0  0  0           0  0  0
   11.7719  -15.5625    0.0000 N   0  3  0  0  0  0           0  0  0
    8.9119  -16.3880    0.0000 O   0  0  0  0  0  0           0  0  0
    8.2005  -15.1515    0.0000 O   0  5  0  0  0  0           0  0  0
   12.4889  -15.1493    0.0000 O   0  0  0  0  0  0           0  0  0
   11.7768  -16.3853    0.0000 O   0  5  0  0  0  0           0  0  0
  5  7  1  0     0  0
  3  4  2  0     0  0
  7  8  1  0     0  0
  2  9  1  0     0  0
  4  5  1  0     0  0
  4 10  1  0     0  0
  2  3  1  0     0  0
  5  6  2  0     0  0
  9 11  2  0     0  0
  9 12  1  0     0  0
  6  1  1  0     0  0
  1  2  2  0     0  0
 10 13  2  0     0  0
 10 14  1  0     0  0
M  CHG  4   9   1  10   1  12  -1  14  -1
M  END