
          11280714492D 1   1.00000     0.00000     0

 31 33  0     0  0            999 V2000
    2.5792   -1.0250    0.0000 C   0  0  0  0  0  0           0  0  0
   -0.2708    1.4458    0.0000 C   0  0  3  0  0  0           0  0  0
    3.3042    1.8833    0.0000 C   0  0  0  0  0  0           0  0  0
    1.8667   -0.6125    0.0000 C   0  0  0  0  0  0           0  0  0
    2.5792   -1.8500    0.0000 C   0  0  0  0  0  0           0  0  0
   -0.2625    0.6208    0.0000 O   0  0  0  0  0  0           0  0  0
    0.4417    1.8625    0.0000 C   0  0  0  0  0  0           0  0  0
    3.2917   -0.6042    0.0000 O   0  0  0  0  0  0           0  0  0
    3.2917    2.7083    0.0000 O   0  0  0  0  0  0           0  0  0
   -0.9833    1.8583    0.0000 C   0  0  0  0  0  0           0  0  0
    1.8667    0.2125    0.0000 C   0  0  0  0  0  0           0  0  0
    1.1542   -1.0250    0.0000 C   0  0  0  0  0  0           0  0  0
    1.8667   -2.2542    0.0000 C   0  0  0  0  0  0           0  0  0
    3.2917   -2.2542    0.0000 C   0  0  0  0  0  0           0  0  0
    2.5917    1.4708    0.0000 C   0  0  0  0  0  0           0  0  0
    1.8667    1.8750    0.0000 N   0  0  3  0  0  0           0  0  0
    0.4500    0.2083    0.0000 C   0  0  0  0  0  0           0  0  0
    1.1625    1.4583    0.0000 C   0  0  0  0  0  0           0  0  0
    4.0167    1.4833    0.0000 O   0  0  0  0  0  0           0  0  0
    1.1542    0.6208    0.0000 C   0  0  0  0  0  0           0  0  0
    0.4417   -0.6125    0.0000 C   0  0  0  0  0  0           0  0  0
    3.3000   -3.0750    0.0000 C   0  0  0  0  0  0           0  0  0
    1.8667   -3.0792    0.0000 C   0  0  0  0  0  0           0  0  0
    2.5792   -3.4917    0.0000 C   0  0  0  0  0  0           0  0  0
   -0.9833    2.6875    0.0000 C   0  0  0  0  0  0           0  0  0
   -1.7000    1.4458    0.0000 C   0  0  0  0  0  0           0  0  0
    1.8667    2.7083    0.0000 C   0  0  0  0  0  0           0  0  0
    2.5875   -4.3167    0.0000 C   0  0  0  0  0  0           0  0  0
   -1.7000    3.1083    0.0000 C   0  0  0  0  0  0           0  0  0
   -2.4125    1.8583    0.0000 C   0  0  0  0  0  0           0  0  0
   -2.4125    2.6875    0.0000 C   0  0  0  0  0  0           0  0  0
  2  6  1  0     0  0
  3 15  1  0     0  0
  4  1  1  0     0  0
  5  1  1  0     0  0
  6 17  1  0     0  0
  7  2  1  0     0  0
  8  1  2  0     0  0
  9  3  2  0     0  0
 10  2  1  0     0  0
 11  4  1  0     0  0
 12  4  2  0     0  0
 13  5  2  0     0  0
 14  5  1  0     0  0
 15 16  1  0     0  0
 16 18  1  0     0  0
 17 21  2  0     0  0
 18  7  1  0     0  0
 19  3  1  0     0  0
 20 11  2  0     0  0
 21 12  1  0     0  0
 22 14  2  0     0  0
 23 13  1  0     0  0
 24 22  1  0     0  0
 25 10  1  0     0  0
 26 10  2  0     0  0
 27 16  1  0     0  0
 28 24  1  0     0  0
 29 25  2  0     0  0
 30 26  1  0     0  0
 31 30  2  0     0  0
 20 17  1  0     0  0
 23 24  2  0     0  0
 29 31  1  0     0  0
M  END