
  Mrv0541 05211314572D          

 18 18  0  0  0  0            999 V2000
   -0.6511    0.6519    0.0000 C   0  0  0  0  0  0  0  0  0  0  0  0
    0.0634    0.2394    0.0000 N   0  0  0  0  0  0  0  0  0  0  0  0
    0.7778    0.6519    0.0000 C   0  0  0  0  0  0  0  0  0  0  0  0
    0.7778    1.4769    0.0000 C   0  0  0  0  0  0  0  0  0  0  0  0
    0.0634    1.8894    0.0000 N   0  0  0  0  0  0  0  0  0  0  0  0
   -0.6511    1.4769    0.0000 C   0  0  0  0  0  0  0  0  0  0  0  0
    0.0634   -0.5856    0.0000 C   0  0  0  0  0  0  0  0  0  0  0  0
   -0.6041   -1.0705    0.0000 S   0  0  0  0  0  0  0  0  0  0  0  0
   -0.3491   -1.8552    0.0000 C   0  0  0  0  0  0  0  0  0  0  0  0
    0.4759   -1.8552    0.0000 C   0  0  0  0  0  0  0  0  0  0  0  0
    0.7308   -1.0705    0.0000 N   0  0  0  0  0  0  0  0  0  0  0  0
   -0.8341   -2.5226    0.0000 C   0  0  0  0  0  0  0  0  0  0  0  0
   -0.4985   -3.2763    0.0000 C   0  0  0  0  0  0  0  0  0  0  0  0
   -0.9834   -3.9437    0.0000 N   0  0  0  0  0  0  0  0  0  0  0  0
    0.0634    2.7144    0.0000 C   0  0  0  0  0  0  0  0  0  0  0  0
    0.7778    3.1269    0.0000 C   0  0  0  0  0  0  0  0  0  0  0  0
    0.7778    3.9519    0.0000 C   0  0  0  0  0  0  0  0  0  0  0  0
    3.0171    0.0000    0.0000 Br  0  0  0  0  0  0  0  0  0  0  0  0
  1  6  1  0  0  0  0
  2  3  1  0  0  0  0
  3  4  1  0  0  0  0
  8  9  1  0  0  0  0
  9 10  2  0  0  0  0
 10 11  1  0  0  0  0
 11  7  2  0  0  0  0
  4  5  1  0  0  0  0
  9 12  1  0  0  0  0
  5  6  1  0  0  0  0
 12 13  1  0  0  0  0
 13 14  1  0  0  0  0
  2  7  1  0  0  0  0
  5 15  1  0  0  0  0
  7  8  1  0  0  0  0
 15 16  1  0  0  0  0
  1  2  1  0  0  0  0
 16 17  1  0  0  0  0
M  END