
  CDK    9/16/09,9:46

106111  0  0  0  0  0  0  0  0999 V2000
   -2.7313  -22.6617    0.0000 N   0  0  0  0  0  0  0  0  0  0  0  0
   -3.4457  -22.2491    0.0000 C   0  0  0  0  0  0  0  0  0  0  0  0
   -4.1601  -22.6617    0.0000 N   0  0  0  0  0  0  0  0  0  0  0  0
   -3.4457  -21.4238    0.0000 N   0  0  0  0  0  0  0  0  0  0  0  0
   -3.4457  -24.7250    0.0000 N   0  0  0  0  0  0  0  0  0  0  0  0
   -2.7313  -25.1377    0.0000 C   0  0  0  0  0  0  0  0  0  0  0  0
   -3.4457  -26.3756    0.0000 O   0  0  0  0  0  0  0  0  0  0  0  0
   -2.7313  -25.9630    0.0000 C   0  0  0  0  0  0  0  0  0  0  0  0
   -2.0169  -24.7250    0.0000 C   0  0  0  0  0  0  0  0  0  0  0  0
   -2.0169  -23.8997    0.0000 C   0  0  0  0  0  0  0  0  0  0  0  0
   -2.7313  -23.4871    0.0000 C   0  0  0  0  0  0  0  0  0  0  0  0
   -2.0169  -26.3756    0.0000 N   0  0  0  0  0  0  0  0  0  0  0  0
   -1.2979  -25.9630    0.0000 C   0  0  0  0  0  0  0  0  0  0  0  0
   -0.5835  -27.2009    0.0000 O   0  0  0  0  0  0  0  0  0  0  0  0
   -0.5835  -26.3756    0.0000 C   0  0  0  0  0  0  0  0  0  0  0  0
   -1.2979  -25.1377    0.0000 C   0  0  0  0  0  0  0  0  0  0  0  0
   -0.5835  -23.8997    0.0000 C   0  0  0  0  0  0  0  0  0  0  0  0
   -0.5835  -24.7250    0.0000 C   0  0  0  0  0  0  0  0  0  0  0  0
    0.1308  -25.1377    0.0000 C   0  0  0  0  0  0  0  0  0  0  0  0
    0.8452  -24.7250    0.0000 C   0  0  0  0  0  0  0  0  0  0  0  0
    0.8452  -23.8997    0.0000 C   0  0  0  0  0  0  0  0  0  0  0  0
    0.1308  -23.4871    0.0000 C   0  0  0  0  0  0  0  0  0  0  0  0
    0.1308  -25.9630    0.0000 N   0  0  0  0  0  0  0  0  0  0  0  0
    0.8452  -26.3756    0.0000 C   0  0  0  0  0  0  0  0  0  0  0  0
    1.5596  -25.1377    0.0000 O   0  0  0  0  0  0  0  0  0  0  0  0
    1.5596  -25.9630    0.0000 C   0  0  0  0  0  0  0  0  0  0  0  0
    0.8452  -27.2009    0.0000 C   0  0  0  0  0  0  0  0  0  0  0  0
    0.1308  -27.6136    0.0000 C   0  0  0  0  0  0  0  0  0  0  0  0
    1.5596  -27.6136    0.0000 C   0  0  0  0  0  0  0  0  0  0  0  0
    2.2740  -26.3756    0.0000 N   0  0  0  0  0  0  0  0  0  0  0  0
    2.9884  -25.9630    0.0000 C   0  0  0  0  0  0  0  0  0  0  0  0
    3.7028  -27.2009    0.0000 O   0  0  0  0  0  0  0  0  0  0  0  0
    3.7028  -26.3756    0.0000 C   0  0  0  0  0  0  0  0  0  0  0  0
    2.9884  -25.1377    0.0000 C   0  0  0  0  0  0  0  0  0  0  0  0
    3.7028  -24.7250    0.0000 O   0  0  0  0  0  0  0  0  0  0  0  0
    2.2740  -24.7250    0.0000 C   0  0  0  0  0  0  0  0  0  0  0  0
    4.4171  -25.9630    0.0000 N   0  0  0  0  0  0  0  0  0  0  0  0
    5.1315  -26.3756    0.0000 C   0  0  0  0  0  0  0  0  0  0  0  0
    5.8504  -25.1377    0.0000 O   0  0  0  0  0  0  0  0  0  0  0  0
    5.8504  -25.9630    0.0000 C   0  0  0  0  0  0  0  0  0  0  0  0
    6.5648  -26.3756    0.0000 N   0  0  0  0  0  0  0  0  0  0  0  0
    7.2792  -25.9630    0.0000 C   0  0  0  0  0  0  0  0  0  0  0  0
    7.9936  -27.2009    0.0000 O   0  0  0  0  0  0  0  0  0  0  0  0
    7.9936  -26.3756    0.0000 C   0  0  0  0  0  0  0  0  0  0  0  0
    7.2792  -25.1377    0.0000 C   0  0  0  0  0  0  0  0  0  0  0  0
    7.0474  -23.6817    0.0000 N   0  0  0  0  0  0  0  0  0  0  0  0
    6.3786  -23.1956    0.0000 C   0  0  0  0  0  0  0  0  0  0  0  0
    5.7114  -23.6808    0.0000 N   0  0  0  0  0  0  0  0  0  0  0  0
    5.9667  -24.4674    0.0000 C   0  0  0  0  0  0  0  0  0  0  0  0
    6.7934  -24.4649    0.0000 C   0  0  0  0  0  0  0  0  0  0  0  0
    8.7079  -25.9630    0.0000 N   0  0  0  0  0  0  0  0  0  0  0  0
    9.4223  -26.3756    0.0000 C   0  0  0  0  0  0  0  0  0  0  0  0
   10.1367  -25.1377    0.0000 O   0  0  0  0  0  0  0  0  0  0  0  0
   10.1367  -25.9630    0.0000 C   0  0  0  0  0  0  0  0  0  0  0  0
    9.4223  -27.2009    0.0000 C   0  0  0  0  0  0  0  0  0  0  0  0
   10.1367  -27.6136    0.0000 C   0  0  0  0  0  0  0  0  0  0  0  0
   10.1367  -28.4389    0.0000 C   0  0  0  0  0  0  0  0  0  0  0  0
   10.8511  -28.8515    0.0000 C   0  0  0  0  0  0  0  0  0  0  0  0
   11.5655  -28.4389    0.0000 C   0  0  0  0  0  0  0  0  0  0  0  0
   11.5655  -27.6136    0.0000 C   0  0  0  0  0  0  0  0  0  0  0  0
   10.8511  -26.3756    0.0000 N   0  0  0  0  0  0  0  0  0  0  0  0
   10.8510  -27.2009    0.0000 C   0  0  0  0  0  0  0  0  0  0  0  0
   15.0472  -26.0185    0.0000 N   0  0  0  0  0  0  0  0  0  0  0  0
   15.7615  -25.6059    0.0000 C   0  0  0  0  0  0  0  0  0  0  0  0
   16.4759  -26.8438    0.0000 O   0  0  0  0  0  0  0  0  0  0  0  0
   16.4759  -26.0185    0.0000 C   0  0  0  0  0  0  0  0  0  0  0  0
   15.7615  -24.7806    0.0000 C   0  0  0  0  0  0  0  0  0  0  0  0
   16.4728  -24.3735    0.0000 C   0  0  0  0  0  0  0  0  0  0  0  0
   16.4721  -23.5485    0.0000 C   0  0  0  0  0  0  0  0  0  0  0  0
   17.1879  -24.7856    0.0000 C   0  0  0  0  0  0  0  0  0  0  0  0
   17.1903  -25.6059    0.0000 N   0  0  0  0  0  0  0  0  0  0  0  0
   17.9047  -26.0185    0.0000 C   0  0  0  0  0  0  0  0  0  0  0  0
   19.3380  -26.0185    0.0000 O   0  0  0  0  0  0  0  0  0  0  0  0
   18.6236  -25.6059    0.0000 C   0  0  0  0  0  0  0  0  0  0  0  0
   17.9047  -26.8438    0.0000 C   0  0  0  0  0  0  0  0  0  0  0  0
   18.6236  -28.0818    0.0000 C   0  0  0  0  0  0  0  0  0  0  0  0
   18.6236  -27.2565    0.0000 C   0  0  0  0  0  0  0  0  0  0  0  0
   19.3380  -26.8438    0.0000 C   0  0  0  0  0  0  0  0  0  0  0  0
   20.0524  -27.2565    0.0000 C   0  0  0  0  0  0  0  0  0  0  0  0
   20.0524  -28.0818    0.0000 C   0  0  0  0  0  0  0  0  0  0  0  0
   19.3380  -28.4944    0.0000 C   0  0  0  0  0  0  0  0  0  0  0  0
   20.7667  -28.4944    0.0000 O   0  0  0  0  0  0  0  0  0  0  0  0
   18.6236  -24.7806    0.0000 N   0  0  0  0  0  0  0  0  0  0  0  0
   19.2916  -24.2930    0.0000 C   0  0  0  0  0  0  0  0  0  0  0  0
   19.9894  -25.5662    0.0000 O   0  0  0  0  0  0  0  0  0  0  0  0
   19.9866  -24.7424    0.0000 C   0  0  0  0  0  0  0  0  0  0  0  0
   19.0362  -23.5121    0.0000 C   0  0  0  0  0  0  0  0  0  0  0  0
   17.9555  -24.2930    0.0000 C   0  0  0  0  0  0  0  0  0  0  0  0
   18.2109  -23.5121    0.0000 C   0  0  0  0  0  0  0  0  0  0  0  0
   20.6937  -24.3186    0.0000 N   0  0  0  0  0  0  0  0  0  0  0  0
   21.4159  -24.7267    0.0000 C   0  0  0  0  0  0  0  0  0  0  0  0
   22.1190  -23.4835    0.0000 O   0  0  0  0  0  0  0  0  0  0  0  0
   21.4231  -25.5515    0.0000 C   0  0  0  0  0  0  0  0  0  0  0  0
   22.1263  -24.3085    0.0000 C   0  0  0  0  0  0  0  0  0  0  0  0
   22.8440  -24.7153    0.0000 O   0  0  0  0  0  0  0  0  0  0  0  0
   12.9025  -25.5940    0.0000 N   0  0  0  0  0  0  0  0  0  0  0  0
   13.6155  -26.0095    0.0000 C   0  0  0  0  0  0  0  0  0  0  0  0
   14.3319  -25.5997    0.0000 C   0  0  0  0  0  0  0  0  0  0  0  0
   14.3352  -24.7744    0.0000 O   0  0  0  0  0  0  0  0  0  0  0  0
   12.9618  -24.7433    0.0000 C   0  0  0  0  0  0  0  0  0  0  0  0
   12.3596  -24.2061    0.0000 C   0  0  0  0  0  0  0  0  0  0  0  0
   12.2091  -26.0528    0.0000 C   0  0  0  0  0  0  0  0  0  0  0  0
   11.4293  -25.7883    0.0000 C   0  0  0  0  0  0  0  0  0  0  0  0
   11.1378  -24.9801    0.0000 C   0  0  0  0  0  0  0  0  0  0  0  0
   11.5539  -24.3072    0.0000 C   0  0  0  0  0  0  0  0  0  0  0  0
   12.3152  -26.8712    0.0000 O   0  0  0  0  0  0  0  0  0  0  0  0
 42 44  1  0  0  0  0 
 44 43  2  0  0  0  0 
 42 45  1  0  0  0  0 
 45 50  1  0  0  0  0 
 46 47  1  0  0  0  0 
 47 48  2  0  0  0  0 
 48 49  1  0  0  0  0 
 49 50  2  0  0  0  0 
 50 46  1  0  0  0  0 
 52 51  1  6  0  0  0 
 52 54  1  0  0  0  0 
 54 53  2  0  0  0  0 
 52 55  1  0  0  0  0 
 55 56  1  0  0  0  0 
 62 56  2  0  0  0  0 
 56 57  1  0  0  0  0 
 57 58  2  0  0  0  0 
 58 59  1  0  0  0  0 
 59 60  2  0  0  0  0 
 60 62  1  0  0  0  0 
  8 12  1  0  0  0  0 
 15 23  1  0  0  0  0 
 26 30  1  0  0  0  0 
 33 37  1  0  0  0  0 
 40 41  1  0  0  0  0 
 44 51  1  0  0  0  0 
 54 61  1  0  0  0  0 
  1  2  1  0  0  0  0 
  2  3  1  0  0  0  0 
  2  4  2  0  0  0  0 
  6  5  1  1  0  0  0 
  6  8  1  0  0  0  0 
  8  7  2  0  0  0  0 
  6  9  1  0  0  0  0 
  9 10  1  0  0  0  0 
 10 11  1  0  0  0  0 
 11  1  1  0  0  0  0 
 13 12  1  1  0  0  0 
 13 15  1  0  0  0  0 
 15 14  2  0  0  0  0 
 13 16  1  0  0  0  0 
 16 18  1  0  0  0  0 
 17 18  2  0  0  0  0 
 18 19  1  0  0  0  0 
 19 20  2  0  0  0  0 
 20 21  1  0  0  0  0 
 21 22  2  0  0  0  0 
 22 17  1  0  0  0  0 
 24 23  1  6  0  0  0 
 24 26  1  0  0  0  0 
 26 25  2  0  0  0  0 
 24 27  1  0  0  0  0 
 27 28  1  0  0  0  0 
 66 71  1  0  0  0  0 
 74 83  1  0  0  0  0 
 86 90  1  0  0  0  0 
 94 95  1  0  0  0  0 
 64 63  1  0  0  0  0 
 64 66  1  0  0  0  0 
 66 65  2  0  0  0  0 
 64 67  1  1  0  0  0 
 67 68  1  0  0  0  0 
 68 69  1  0  0  0  0 
 68 70  1  0  0  0  0 
 72 71  1  6  0  0  0 
 72 74  1  0  0  0  0 
 74 73  2  0  0  0  0 
 72 75  1  0  0  0  0 
 75 77  1  0  0  0  0 
 76 77  2  0  0  0  0 
 77 78  1  0  0  0  0 
 78 79  2  0  0  0  0 
 79 80  1  0  0  0  0 
 80 81  2  0  0  0  0 
 81 76  1  0  0  0  0 
 80 82  1  0  0  0  0 
 83 84  1  0  0  0  0 
 84 86  1  1  0  0  0 
 86 85  2  0  0  0  0 
 84 87  1  0  0  0  0 
 88 89  1  0  0  0  0 
 89 87  1  0  0  0  0 
 88 83  1  0  0  0  0 
 90 91  1  0  0  0  0 
 91 94  1  0  0  0  0 
 94 92  2  0  0  0  0 
 91 93  1  6  0  0  0 
 27 29  1  0  0  0  0 
 31 30  1  1  0  0  0 
 96 97  1  0  0  0  0 
 31 33  1  0  0  0  0 
 97 98  1  0  0  0  0 
 98 63  1  0  0  0  0 
 33 32  2  0  0  0  0 
 98 99  2  0  0  0  0 
 31 34  1  0  0  0  0 
 34 35  1  1  0  0  0 
 34 36  1  0  0  0  0 
 37 38  1  0  0  0  0 
 38 40  1  0  0  0  0 
 40 39  2  0  0  0  0 
 96100  1  0  0  0  0 
100101  1  0  0  0  0 
 96102  1  0  0  0  0 
103104  1  0  0  0  0 
104105  1  0  0  0  0 
105101  1  0  0  0  0 
102103  1  0  0  0  0 
103 61  1  6  0  0  0 
 42 41  1  1  0  0  0 
102106  2  0  0  0  0 
M  END