
  SciTegic03291108522D

 26 27  0  0  1  0            999 V2000
   -6.9878    1.2418    0.0000 O   0  0
   -4.1300   -0.4082    0.0000 O   0  0
    0.8713    0.0043    0.0000 O   0  0
   -0.5576    0.8293    0.0000 O   0  0
   -9.1313    0.8293    0.0000 O   0  0
   -8.4168    2.0668    0.0000 O   0  0
   -1.9865    0.0043    0.0000 N   0  0
   -6.2734    0.8293    0.0000 C   0  0
   -4.8444    0.0043    0.0000 C   0  0
   -5.5589    1.2418    0.0000 C   0  0
   -6.2734    0.0043    0.0000 C   0  0
   -4.8444    0.8293    0.0000 C   0  0
   -5.5589   -0.4082    0.0000 C   0  0
    1.5858   -0.4082    0.0000 C   0  0
   -7.7023    0.8293    0.0000 C   0  0
   -0.5576    0.0043    0.0000 C   0  0  1  0  0  0
   -3.4155    0.0043    0.0000 C   0  0
    0.1569   -0.4082    0.0000 C   0  0
    2.3003    0.0043    0.0000 C   0  0
    1.5858   -1.2332    0.0000 C   0  0
   -1.2721   -0.4082    0.0000 C   0  0
   -2.7010   -0.4082    0.0000 C   0  0
   -8.4168    1.2418    0.0000 C   0  0
    3.0148   -0.4082    0.0000 C   0  0
    2.3003   -1.6457    0.0000 C   0  0
    3.0148   -1.2332    0.0000 C   0  0
  1  8  1  0
  1 15  1  0
  2  9  1  0
  2 17  1  0
  3 14  1  0
  3 18  1  0
 16  4  1  1
  5 23  2  0
  6 23  1  0
  7 21  1  0
  7 22  1  0
  8 10  2  0
  8 11  1  0
  9 12  2  0
  9 13  1  0
 10 12  1  0
 11 13  2  0
 14 19  2  0
 14 20  1  0
 15 23  1  0
 16 18  1  0
 16 21  1  0
 17 22  1  0
 19 24  1  0
 20 25  2  0
 24 26  2  0
 25 26  1  0
M  END