
          03140815512D 1   1.00000     0.00000     0

 17 18  0     0  0            999 V2000
    6.8875   -4.3083    0.0000 N   0  0  3  0  0  0           0  0  0
    6.8875   -5.1333    0.0000 C   0  0  0  0  0  0           0  0  0
    7.5995   -5.5417    0.0000 C   0  0  0  0  0  0           0  0  0
    8.3115   -5.1333    0.0000 O   0  0  0  0  0  0           0  0  0
    8.3115   -4.3083    0.0000 C   0  0  0  0  0  0           0  0  0
    7.5995   -3.8917    0.0000 C   0  0  0  0  0  0           0  0  0
    6.1718   -3.8979    0.0000 C   0  0  0  0  0  0           0  0  0
    6.1694   -3.0729    0.0000 O   0  0  0  0  0  0           0  0  0
    5.4586   -4.3125    0.0000 C   0  0  0  0  0  0           0  0  0
    4.7429   -3.9021    0.0000 S   0  0  0  0  0  0           0  0  0
    4.0296   -4.3167    0.0000 C   0  0  0  0  0  0           0  0  0
    3.3147   -3.9030    0.0000 C   0  0  0  0  0  0           0  0  0
    2.6019   -4.3169    0.0000 C   0  0  0  0  0  0           0  0  0
    2.6039   -5.1428    0.0000 C   0  0  0  0  0  0           0  0  0
    3.3246   -5.5530    0.0000 C   0  0  0  0  0  0           0  0  0
    4.0344   -5.1367    0.0000 C   0  0  0  0  0  0           0  0  0
    1.8912   -5.5583    0.0000 C   0  0  0  0  0  0           0  0  0
  1  6  1  0     0  0
  7  9  1  0     0  0
  2  3  1  0     0  0
  9 10  1  0     0  0
  3  4  1  0     0  0
 10 11  1  0     0  0
  4  5  1  0     0  0
 11 12  2  0     0  0
  5  6  1  0     0  0
 12 13  1  0     0  0
 13 14  2  0     0  0
  1  7  1  0     0  0
 14 15  1  0     0  0
  1  2  1  0     0  0
 15 16  2  0     0  0
 16 11  1  0     0  0
  7  8  2  0     0  0
 14 17  1  0     0  0
M  END