
  SciTegic10301317112D

 22 22  0  0  0  0            999 V2000
    0.9125   -4.4625    0.0000 S   0  0
    4.2042   -4.4417    0.0000 C   0  0
    1.7375   -4.4625    0.0000 C   0  0
    8.0167   -6.3792    0.0000 C   0  0
    6.6875   -5.8625    0.0000 N   0  0
    5.8625   -5.8667    0.0000 C   0  0
    4.6167   -5.1625    0.0000 N   0  0
    0.9042   -5.2875    0.0000 O   0  0
    0.9125   -3.6375    0.0000 O   0  0
    7.2042   -6.5042    0.0000 C   0  0  1  0  0  0
    3.3792   -4.4542    0.0000 C   0  0
    0.0875   -4.4542    0.0000 N   0  0
    4.6125   -3.7292    0.0000 O   0  0
    8.3167   -5.6167    0.0000 O   0  0
    5.4542   -6.5792    0.0000 O   0  0
    2.1292   -3.7500    0.0000 C   0  0
    2.1500   -5.1750    0.0000 C   0  0
    2.9667   -5.1667    0.0000 C   0  0
    2.9542   -3.7417    0.0000 C   0  0
    5.4417   -5.1542    0.0000 C   0  0
    8.5292   -7.0292    0.0000 O   0  0
    6.9000   -7.2750    0.0000 C   0  0
  2 11  1  0
  3  1  1  0
  4 10  1  0
  5  6  1  0
  6 20  1  0
  7  2  1  0
  8  1  2  0
  9  1  2  0
 10  5  1  0
 11 18  2  0
 12  1  1  0
 13  2  2  0
 14  4  2  0
 15  6  2  0
 16  3  1  0
 17  3  2  0
 18 17  1  0
 19 16  2  0
 20  7  1  0
 21  4  1  0
 10 22  1  6
 19 11  1  0
M  END