
  SciTegic06281210282D

 28 31  0  0  0  0            999 V2000
   14.5125    3.3417    0.0000 O   0  0
   14.5167    2.5167    0.0000 S   0  0
   15.2291    2.9328    0.0000 O   0  0
   11.2445    1.3023    0.0000 C   0  0
   11.2445    0.4773    0.0000 C   0  0
   11.9589    0.0648    0.0000 C   0  0
   12.6734    0.4773    0.0000 C   0  0
   12.6734    1.3023    0.0000 C   0  0
   11.9589    1.7148    0.0000 C   0  0
   13.4570    0.2213    0.0000 N   0  0
   13.9429    0.8898    0.0000 N   0  0
   13.4580    1.5572    0.0000 C   0  0
   11.9589    2.5398    0.0000 O   0  0
   11.2445    2.9523    0.0000 C   0  0
   13.4583   -0.6037    0.0000 C   0  0
   12.7444   -1.0173    0.0000 C   0  0
   12.0293   -0.6059    0.0000 C   0  0
   11.3154   -1.0195    0.0000 C   0  0
   11.3167   -1.8445    0.0000 C   0  0
   12.0318   -2.2559    0.0000 C   0  0
   12.7457   -1.8423    0.0000 C   0  0
   13.7130    2.3418    0.0000 N   0  0
   15.0719    1.9002    0.0000 C   0  0
   14.9004    1.0946    0.0000 C   0  0
   15.6149    0.6820    0.0000 C   0  0
   16.2280    1.2341    0.0000 C   0  0
   15.8924    1.9877    0.0000 S   0  0
   17.0350    1.0626    0.0000 Cl  0  0
  8  9  2  0
  9  4  1  0
  7 10  1  0
 10 11  1  0
 11 12  2  0
 12  8  1  0
  9 13  1  0
 13 14  1  0
 10 15  1  0
 15 16  1  0
 16 17  2  0
 17 18  1  0
 18 19  2  0
 19 20  1  0
 20 21  2  0
 21 16  1  0
 12 22  1  0
 22  2  1  0
  2  1  2  0
  2 23  1  0
 23 24  2  0
  3  2  2  0
  4  5  2  0
  5  6  1  0
  6  7  2  0
 24 25  1  0
 25 26  2  0
 26 27  1  0
 27 23  1  0
  7  8  1  0
 26 28  1  0
M  END