
  Mrv0541 05211314572D          

 15 16  0  0  0  0            999 V2000
    0.9925    0.9673    0.0000 C   0  0  0  0  0  0  0  0  0  0  0  0
    0.9925    0.1423    0.0000 C   0  0  0  0  0  0  0  0  0  0  0  0
    1.7070   -0.2702    0.0000 C   0  0  0  0  0  0  0  0  0  0  0  0
    1.7070    1.3798    0.0000 C   0  0  0  0  0  0  0  0  0  0  0  0
    2.4215    0.9673    0.0000 C   0  0  0  0  0  0  0  0  0  0  0  0
    2.4215    0.1423    0.0000 C   0  0  0  0  0  0  0  0  0  0  0  0
    3.1360   -0.2702    0.0000 S   0  0  0  0  0  0  0  0  0  0  0  0
    3.8504    0.1423    0.0000 N   0  0  0  0  0  0  0  0  0  0  0  0
    3.8504    0.9673    0.0000 C   0  0  0  0  0  0  0  0  0  0  0  0
    3.1360    1.3798    0.0000 N   0  0  0  0  0  0  0  0  0  0  0  0
    2.7486   -0.9987    0.0000 O   0  0  0  0  0  0  0  0  0  0  0  0
    3.5233   -0.9987    0.0000 O   0  0  0  0  0  0  0  0  0  0  0  0
    3.1360    2.2048    0.0000 C   0  0  0  0  0  0  0  0  0  0  0  0
    3.8504    2.6173    0.0000 C   0  0  0  0  0  0  0  0  0  0  0  0
    0.2781   -0.2702    0.0000 F   0  0  0  0  0  0  0  0  0  0  0  0
  5  4  2  0  0  0  0
  4  1  1  0  0  0  0
  5 10  1  0  0  0  0
  6  7  1  0  0  0  0
  7  8  1  0  0  0  0
  8  9  1  0  0  0  0
  9 10  1  0  0  0  0
  5  6  1  0  0  0  0
  7 11  2  0  0  0  0
  7 12  2  0  0  0  0
  2  3  1  0  0  0  0
 10 13  1  0  0  0  0
  3  6  2  0  0  0  0
 13 14  1  0  0  0  0
  1  2  2  0  0  0  0
  2 15  1  0  0  0  0
M  END