
          11290714382D 1   1.00000     0.00000     0

 57 60  0     1  0            999 V2000
    2.8807   -9.4967    0.0000 C   0  0  0  0  0  0           0  0  0
    3.5979   -9.9045    0.0000 C   0  0  0  0  0  0           0  0  0
    4.3048   -9.4873    0.0000 N   0  0  3  0  0  0           0  0  0
    4.3017   -8.6665    0.0000 C   0  0  0  0  0  0           0  0  0
    3.5845   -8.2588    0.0000 C   0  0  0  0  0  0           0  0  0
    2.8704   -8.6718    0.0000 C   0  0  3  0  0  0           0  0  0
    2.8585   -7.8497    0.0000 C   0  0  0  0  0  0           0  0  0
    2.1554   -9.0835    0.0000 N   0  0  0  0  0  0           0  0  0
    3.5669   -7.4269    0.0000 O   0  0  0  0  0  0           0  0  0
    2.1381   -7.4476    0.0000 N   0  0  0  0  0  0           0  0  0
    5.0220   -9.8950    0.0000 C   0  0  0  0  0  0           0  0  0
    2.1262   -6.6227    0.0000 C   0  0  2  0  0  0           0  0  0
    1.4058   -6.2205    0.0000 C   0  0  0  0  0  0           0  0  0
    2.8346   -6.1999    0.0000 C   0  0  0  0  0  0           0  0  0
    2.8227   -5.3749    0.0000 C   0  0  0  0  0  0           0  0  0
    3.5311   -4.9521    0.0000 N   0  0  0  0  0  0           0  0  0
    2.1023   -4.9728    0.0000 O   0  0  0  0  0  0           0  0  0
    1.3939   -5.3956    0.0000 O   0  0  0  0  0  0           0  0  0
    0.6974   -6.6433    0.0000 N   0  0  0  0  0  0           0  0  0
   -0.0230   -6.2412    0.0000 C   0  0  0  0  0  0           0  0  0
   -0.7314   -6.6640    0.0000 C   0  0  0  0  0  0           0  0  0
   -1.4518   -6.2619    0.0000 C   0  0  0  0  0  0           0  0  0
   -2.1602   -6.6847    0.0000 C   0  0  0  0  0  0           0  0  0
   -2.8778   -6.2800    0.0000 C   0  0  0  0  0  0           0  0  0
   -2.8488   -7.9298    0.0000 C   0  0  0  0  0  0           0  0  0
   -2.1438   -7.5054    0.0000 C   0  0  0  0  0  0           0  0  0
   -3.5742   -7.5280    0.0000 C   0  0  0  0  0  0           0  0  0
   -3.5832   -6.7036    0.0000 C   0  0  0  0  0  0           0  0  0
   -4.3005   -6.3010    0.0000 C   0  0  0  0  0  0           0  0  0
   -5.0092   -6.7217    0.0000 C   0  0  0  0  0  0           0  0  0
   -4.9962   -7.5491    0.0000 C   0  0  0  0  0  0           0  0  0
   -4.2784   -7.9480    0.0000 C   0  0  0  0  0  0           0  0  0
    1.4414   -8.6701    0.0000 C   0  0  0  0  0  0           0  0  0
    0.7265   -9.0818    0.0000 C   0  0  2  0  0  0           0  0  0
    1.4424   -7.8451    0.0000 O   0  0  0  0  0  0           0  0  0
    0.0125   -8.6684    0.0000 C   0  0  0  0  0  0           0  0  0
   -0.7025   -9.0801    0.0000 C   0  0  0  0  0  0           0  0  0
   -1.4158   -8.6651    0.0000 C   0  0  0  0  0  0           0  0  0
   -2.1303   -9.0760    0.0000 C   0  0  0  0  0  0           0  0  0
   -2.1317   -9.9019    0.0000 C   0  0  0  0  0  0           0  0  0
   -1.4127  -10.3151    0.0000 C   0  0  0  0  0  0           0  0  0
   -0.7012   -9.9018    0.0000 C   0  0  0  0  0  0           0  0  0
    0.7255   -9.9068    0.0000 C   0  0  0  0  0  0           0  0  0
    1.4395  -10.3201    0.0000 C   0  0  0  0  0  0           0  0  0
    1.4418  -11.1458    0.0000 O   0  0  0  0  0  0           0  0  0
    2.1577   -9.9092    0.0000 O   0  0  0  0  0  0           0  0  0
   -2.8461  -10.3145    0.0000 C   0  0  0  0  0  0           0  0  0
   -3.5607   -9.9021    0.0000 P   0  0  3  0  0  0           0  0  0
   -4.2714   -9.4749    0.0000 O   0  0  0  0  0  0           0  0  0
   -3.9794  -10.6130    0.0000 O   0  0  0  0  0  0           0  0  0
   -3.1382   -9.1935    0.0000 O   0  0  0  0  0  0           0  0  0
    5.7337   -9.4778    0.0000 O   0  0  0  0  0  0           0  0  0
    5.0275  -10.7200    0.0000 O   0  0  0  0  0  0           0  0  0
    6.4509   -9.8855    0.0000 C   0  0  0  0  0  0           0  0  0
    7.1626   -9.4683    0.0000 C   0  0  0  0  0  0           0  0  0
    7.8798   -9.8760    0.0000 O   0  0  0  0  0  0           0  0  0
    8.5915   -9.4588    0.0000 C   0  0  0  0  0  0           0  0  0
 27 28  1  0     0  0
 12 14  1  6     0  0
 28 29  2  0     0  0
  6  7  1  0     0  0
 29 30  1  0     0  0
 14 15  1  0     0  0
 30 31  2  0     0  0
  1  2  1  0     0  0
 31 32  1  0     0  0
 32 27  2  0     0  0
 15 16  1  0     0  0
  8 33  1  0     0  0
  6  8  1  0     0  0
 33 34  1  0     0  0
 15 17  2  0     0  0
 33 35  2  0     0  0
  1  6  1  0     0  0
 34 36  1  0     0  0
 13 18  2  0     0  0
 36 37  1  0     0  0
  7  9  2  0     0  0
 37 38  2  0     0  0
 13 19  1  0     0  0
 38 39  1  0     0  0
  2  3  1  0     0  0
 39 40  2  0     0  0
 19 20  1  0     0  0
 40 41  1  0     0  0
  7 10  1  0     0  0
 41 42  2  0     0  0
 42 37  1  0     0  0
 20 21  1  0     0  0
 34 43  1  1     0  0
  3  4  1  0     0  0
 43 44  1  0     0  0
 21 22  1  0     0  0
  3 11  1  0     0  0
 44 45  1  0     0  0
 44 46  2  0     0  0
 22 23  1  0     0  0
 40 47  1  0     0  0
  4  5  1  0     0  0
 47 48  1  0     0  0
 23 24  2  0     0  0
 48 49  2  0     0  0
 24 28  1  0     0  0
 48 50  1  0     0  0
 10 12  1  0     0  0
 48 51  1  0     0  0
 27 25  1  0     0  0
 11 52  1  0     0  0
  5  6  1  0     0  0
 11 53  2  0     0  0
 25 26  2  0     0  0
 52 54  1  0     0  0
 26 23  1  0     0  0
 54 55  1  0     0  0
 12 13  1  0     0  0
 55 56  1  0     0  0
 56 57  1  0     0  0
M  END