
          11280715202D 1   1.00000     0.00000     0

 28 31  0     0  0            999 V2000
    2.7750   -7.2417    0.0000 C   0  0  0  0  0  0           0  0  0
    2.3417   -5.1542    0.0000 N   0  0  0  0  0  0           0  0  0
    3.1667   -5.1542    0.0000 N   0  0  0  0  0  0           0  0  0
    2.7667   -6.4250    0.0000 C   0  0  3  0  0  0           0  0  0
    2.0917   -5.9417    0.0000 N   0  0  0  0  0  0           0  0  0
    3.4292   -5.9375    0.0000 N   0  0  0  0  0  0           0  0  0
    7.0625   -9.7167    0.0000 N   0  0  3  0  0  0           0  0  0
    3.4917   -7.6542    0.0000 C   0  0  0  0  0  0           0  0  0
    5.6375   -8.8917    0.0000 N   0  0  3  0  0  0           0  0  0
    3.4917   -8.4875    0.0000 C   0  0  0  0  0  0           0  0  0
    7.7667  -10.1292    0.0000 C   0  0  0  0  0  0           0  0  0
    2.0625   -7.6625    0.0000 C   0  0  0  0  0  0           0  0  0
    4.9167   -8.4792    0.0000 C   0  0  0  0  0  0           0  0  0
    4.2042   -8.9000    0.0000 C   0  0  3  0  0  0           0  0  0
    7.0625   -8.8917    0.0000 C   0  0  0  0  0  0           0  0  0
    6.3417  -10.1292    0.0000 C   0  0  0  0  0  0           0  0  0
    2.7750   -8.9000    0.0000 C   0  0  0  0  0  0           0  0  0
    8.4667   -9.7250    0.0000 C   0  0  0  0  0  0           0  0  0
    2.0625   -8.4875    0.0000 C   0  0  0  0  0  0           0  0  0
    5.6292   -9.7167    0.0000 C   0  0  0  0  0  0           0  0  0
    6.3417   -8.4792    0.0000 C   0  0  0  0  0  0           0  0  0
    1.3500   -7.2500    0.0000 O   0  0  0  0  0  0           0  0  0
    4.2042   -9.7250    0.0000 O   0  0  0  0  0  0           0  0  0
    7.7542  -10.9500    0.0000 C   0  0  0  0  0  0           0  0  0
    8.4667   -8.9000    0.0000 C   0  0  0  0  0  0           0  0  0
    9.1750  -10.1292    0.0000 C   0  0  0  0  0  0           0  0  0
    8.4625  -11.3542    0.0000 C   0  0  0  0  0  0           0  0  0
    9.1750  -10.9542    0.0000 C   0  0  0  0  0  0           0  0  0
  2  5  2  0     0  0
  3  6  2  0     0  0
  4  1  1  0     0  0
  5  4  1  0     0  0
  6  4  1  0     0  0
  7 15  1  0     0  0
  8  1  2  0     0  0
  9 13  1  0     0  0
 10  8  1  0     0  0
 11  7  1  0     0  0
 12  1  1  0     0  0
 13 14  1  0     0  0
 14 10  1  0     0  0
 15 21  1  0     0  0
 16 20  1  0     0  0
 17 19  1  0     0  0
 18 11  1  0     0  0
 19 12  2  0     0  0
 20  9  1  0     0  0
 21  9  1  0     0  0
 22 12  1  0     0  0
 23 14  1  0     0  0
 24 11  2  0     0  0
 25 18  1  0     0  0
 26 18  2  0     0  0
 27 24  1  0     0  0
 28 27  2  0     0  0
 10 17  2  0     0  0
  2  3  1  0     0  0
  7 16  1  0     0  0
 28 26  1  0     0  0
M  END