
  SciTegic01161211242D

 25 27  0  0  0  0            999 V2000
   -4.0796    2.9212    0.0000 C   0  0
   -4.4154    1.5110    0.0000 C   0  0
   -5.4059    2.4008    0.0000 O   0  0
   -3.7271    2.0986    0.0000 N   0  0
   -3.4585    0.3693    0.0000 C   0  0
   -2.7365    3.5760    0.0000 C   0  0
    0.8613   -0.2034    0.0000 C   0  0
   -2.2657    1.6698    0.0000 C   0  0
    2.3331   -0.4972    0.0000 C   0  0
   -1.3935    2.9212    0.0000 C   0  0
   -1.9978    0.3693    0.0000 C   0  0
   -1.0913    1.5110    0.0000 C   0  0
    0.3789    1.2178    0.0000 O   0  0
   -2.0287    0.6983    0.0000 N   0  0
    0.0698   -1.1054    0.0000 O   0  0
    2.8155   -1.9184    0.0000 C   0  0
    3.3207    0.6329    0.0000 C   0  0
    7.2653   -0.5926    0.0000 Cl  0  0
   -1.5425    2.3606    0.0000 C   0  0
    2.9337    1.7688    0.0000 O   0  0
    4.2861   -2.2141    0.0000 C   0  0
    1.8242   -3.0442    0.0000 C   0  0
    2.3034   -4.4656    0.0000 C   0  0
    4.7653   -3.6355    0.0000 C   0  0
    3.7740   -4.7612    0.0000 C   0  0
  1  2  1  0
  1  3  1  0
  2  3  1  0
  2  5  1  0
  4  5  1  0
  1  6  1  0
  4  6  1  0
  4  8  1  0
  7  9  1  0
  6 10  1  0
  5 11  1  0
 10 12  1  0
 11 12  1  0
  7 13  1  0
 12 13  1  0
  8 14  2  0
  7 15  2  0
  9 16  1  0
  9 17  1  0
  8 19  1  0
 17 20  1  0
 16 21  1  0
 16 22  2  0
 22 23  1  0
 21 24  2  0
 23 25  2  0
 24 25  1  0
M  END