
  SciTegic01161211212D

 33 35  0  0  0  0            999 V2000
    3.7438    1.1159    0.0000 C   0  0  2  0  0  0
    3.7408    0.2862    0.0000 C   0  0
    4.4518   -0.1251    0.0000 N   0  0
    4.4532    1.5268    0.0000 O   0  0
    5.1777    2.7657    0.0000 C   0  0
    4.4538    2.3551    0.0000 C   0  0
    5.8596   -0.9648    0.0000 C   0  0
    3.7411    2.7706    0.0000 O   0  0
    5.1559    0.2806    0.0000 C   0  0
    5.8717   -0.1412    0.0000 C   0  0  1  0  0  0
    6.5963    0.2722    0.0000 C   0  0
    6.6001    1.1000    0.0000 C   0  0
    5.1600    1.1056    0.0000 O   0  0
    6.5680   -1.3877    0.0000 C   0  0
    6.5559   -2.2126    0.0000 N   0  0
    7.2884   -0.9857    0.0000 O   0  0
    7.2642   -2.6356    0.0000 C   0  0
    7.2521   -3.4605    0.0000 C   0  0
    6.5302   -3.8576    0.0000 C   0  0
    6.5178   -4.6818    0.0000 C   0  0
    7.2266   -5.1055    0.0000 C   0  0
    7.9495   -4.6992    0.0000 C   0  0
    7.9584   -3.8763    0.0000 C   0  0
    7.2156   -5.9305    0.0000 Cl  0  0
    7.2212    1.6087    0.0000 C   0  0
    5.8885    2.3386    0.0000 C   0  0
    6.6958    2.5750    0.0000 C   0  0
    3.0298    1.5292    0.0000 C   0  0
    3.0340    2.3512    0.0000 C   0  0
    2.3209    2.7644    0.0000 C   0  0
    1.6050    2.3526    0.0000 C   0  0
    1.6067    1.5234    0.0000 C   0  0
    2.3205    1.1139    0.0000 C   0  0
  3  9  1  0
 15 17  1  0
  6  8  2  0
 17 18  1  0
 18 19  2  0
  1  2  1  0
 19 20  1  0
  9 10  1  0
 20 21  2  0
  1  4  1  0
 21 22  1  0
 10 11  1  0
 22 23  2  0
 23 18  1  0
  4  6  1  0
 21 24  1  0
 11 12  1  0
 12 25  2  0
 26  5  1  0
  9 13  2  0
 25 27  1  0
 26 27  1  0
  5  6  1  0
  1 28  1  1
  7 14  1  0
 28 29  2  0
  2  3  1  0
 29 30  1  0
 14 15  1  0
 30 31  2  0
 10  7  1  1
 31 32  1  0
 14 16  2  0
 32 33  2  0
 33 28  1  0
M  END