
  SciTegic07291412072D

 54 55  0  0  0  0            999 V2000
    5.5644   -1.1105    0.0000 C   0  0  1  0  0  0
    6.2318   -1.5955    0.0000 C   0  0  2  0  0  0
    5.5344    1.7472    0.0000 C   0  0  2  0  0  0
    4.7095    1.7385    0.0000 C   0  0  1  0  0  0
    5.9544    1.0371    0.0000 C   0  0  1  0  0  0
    5.9769   -2.3801    0.0000 C   0  0  1  0  0  0
    3.0745    0.2924    0.0000 S   0  0
    5.5494    0.3183    0.0000 C   0  0  1  0  0  0
    5.5195    3.1760    0.0000 S   0  0
    7.6295   -1.8926    0.0000 S   0  0
    6.1262   -3.8012    0.0000 S   0  0
    3.4646    2.4400    0.0000 S   0  0
    7.1993    0.3356    0.0000 S   0  0
    4.3045    1.0198    0.0000 C   0  0  1  0  0  0
    3.9144   -1.0933    0.0000 S   0  0
    4.5176   -4.4686    0.0000 S   0  0
    4.8969   -1.5955    0.0000 O   0  0
    5.9694   -0.3918    0.0000 O   0  0
    4.7244    0.3097    0.0000 O   0  0
    5.1519   -2.3801    0.0000 C   0  0  2  0  0  0
    3.4795    1.0111    0.0000 C   0  0
    5.1594   -0.3918    0.0000 C   0  0
    7.0164   -1.3405    0.0000 O   0  0
    5.9394    2.4659    0.0000 O   0  0
    4.2895    2.4487    0.0000 O   0  0
    6.4618   -3.0475    0.0000 O   0  0
    6.7793    1.0457    0.0000 C   0  0
    4.3344   -0.3832    0.0000 O   0  0
    4.6669   -3.0475    0.0000 C   0  0
    5.0025   -3.8012    0.0000 O   0  0
    2.6695   -0.4264    0.0000 O   0  0
    5.0995    3.8862    0.0000 O   0  0
    5.7907   -4.5549    0.0000 O   0  0
    8.2426   -2.4446    0.0000 O   0  0
    2.6396    2.4314    0.0000 O   0  0
    7.6193   -0.3745    0.0000 O   0  0
    3.4945   -1.8034    0.0000 O   0  0
    4.0326   -5.1361    0.0000 O   0  0
    2.3558    0.6974    0.0000 O   0  0
    3.7933   -0.1126    0.0000 O   0  0
    8.1815   -1.2795    0.0000 O   0  0
    7.0775   -2.5057    0.0000 O   0  0
    3.4732    1.6151    0.0000 O   0  0
    3.4559    3.2650    0.0000 O   0  0
    6.2296    3.5960    0.0000 O   0  0
    6.8799   -4.1368    0.0000 O   0  0
    5.3725   -3.4657    0.0000 O   0  0
    4.8094    2.7561    0.0000 O   0  0
    6.4892   -0.0844    0.0000 O   0  0
    7.9094    0.7556    0.0000 O   0  0
    3.2043   -0.6733    0.0000 O   0  0
    4.6246   -1.5132    0.0000 O   0  0
    5.1850   -4.9536    0.0000 O   0  0
    3.8501   -3.9837    0.0000 O   0  0
  2  1  1  0
  3  5  1  0
  4 14  1  0
  5  8  1  0
  6  2  1  0
  7 21  1  0
  8 18  1  1
  9 24  1  0
 10 23  1  0
 11 26  1  0
 12 25  1  0
 13 27  1  0
 14 19  1  0
 15 28  1  0
 16 30  1  0
 17  1  1  0
  1 18  1  1
 19  8  1  0
 14 21  1  1
  1 22  1  6
  2 23  1  1
  3 24  1  1
  4 25  1  1
  5 27  1  6
 28 22  1  0
 20 29  1  1
 30 29  1  0
 31  7  1  0
 32  9  1  0
 33 11  1  0
 34 10  1  0
 35 12  1  0
 36 13  1  0
 37 15  1  0
 38 16  1  0
 39  7  2  0
 40  7  2  0
 41 10  2  0
 42 10  2  0
 43 12  2  0
 44 12  2  0
 45  9  2  0
 46 11  2  0
 47 11  2  0
 48  9  2  0
 49 13  2  0
 50 13  2  0
 51 15  2  0
 52 15  2  0
 53 16  2  0
 54 16  2  0
  6 20  1  0
  3  4  1  0
 20 17  1  0
  6 26  1  6
M  END