
          11280714522D 1   1.00000     0.00000     0

 38 42  0     0  0            999 V2000
    0.2792   -2.3542    0.0000 C   0  0  0  0  0  0           0  0  0
    0.9417   -1.8792    0.0000 N   0  0  0  0  0  0           0  0  0
    0.0125   -1.6792    0.0000 C   0  0  3  0  0  0           0  0  0
    1.6125   -2.3542    0.0000 C   0  0  0  0  0  0           0  0  0
    0.1625   -0.9917    0.0000 C   0  0  3  0  0  0           0  0  0
   -1.2958   -1.7667    0.0000 C   0  0  3  0  0  0           0  0  0
   -0.9583   -2.5542    0.0000 O   0  0  0  0  0  0           0  0  0
    0.5292   -3.1417    0.0000 O   0  0  0  0  0  0           0  0  0
   -0.6208   -1.2167    0.0000 C   0  0  3  0  0  0           0  0  0
    1.3542   -3.1417    0.0000 C   0  0  0  0  0  0           0  0  0
    0.6417   -1.4667    0.0000 C   0  0  0  0  0  0           0  0  0
    2.2792   -2.0792    0.0000 C   0  0  0  0  0  0           0  0  0
    1.1125   -0.9917    0.0000 C   0  0  0  0  0  0           0  0  0
   -1.2208    0.4833    0.0000 C   0  0  0  0  0  0           0  0  0
   -1.5708   -1.2292    0.0000 C   0  0  0  0  0  0           0  0  0
   -1.0958   -0.7417    0.0000 C   0  0  0  0  0  0           0  0  0
    0.6792   -0.2917    0.0000 C   0  0  0  0  0  0           0  0  0
    2.3667   -1.3292    0.0000 O   0  0  0  0  0  0           0  0  0
   -2.0208    0.2708    0.0000 O   0  0  0  0  0  0           0  0  0
    2.9292   -2.4917    0.0000 N   0  0  0  0  0  0           0  0  0
    0.0917    0.2958    0.0000 C   0  0  0  0  0  0           0  0  0
   -0.6250   -0.1125    0.0000 C   0  0  0  0  0  0           0  0  0
    7.9375   -1.2792    0.0000 C   0  0  0  0  0  0           0  0  0
   -1.0000    1.2833    0.0000 O   0  0  0  0  0  0           0  0  0
    6.5167   -2.1167    0.0000 C   0  0  0  0  0  0           0  0  0
    7.9417   -2.1042    0.0000 C   0  0  0  0  0  0           0  0  0
    7.2167   -0.8750    0.0000 C   0  0  0  0  0  0           0  0  0
    7.2292   -2.5250    0.0000 C   0  0  0  0  0  0           0  0  0
    6.5042   -1.2917    0.0000 C   0  0  0  0  0  0           0  0  0
    8.6500   -0.8667    0.0000 O   0  0  0  0  0  0           0  0  0
    1.9417   -0.9667    0.0000 C   0  0  0  0  0  0           0  0  0
    1.0792    0.4458    0.0000 C   0  0  0  0  0  0           0  0  0
    3.6667   -2.1250    0.0000 C   0  0  0  0  0  0           0  0  0
    5.8042   -2.5292    0.0000 C   0  0  0  0  0  0           0  0  0
    4.3792   -2.5375    0.0000 C   0  0  0  0  0  0           0  0  0
    5.0917   -2.1167    0.0000 C   0  0  0  0  0  0           0  0  0
    2.3375   -0.2417    0.0000 C   0  0  0  0  0  0           0  0  0
    1.9042    0.4583    0.0000 C   0  0  0  0  0  0           0  0  0
  2  1  2  0     0  0
  3  1  1  0     0  0
  4  2  1  0     0  0
  5  3  1  0     0  0
  6  3  1  0     0  0
  7  6  1  0     0  0
  8  1  1  0     0  0
  9  5  1  0     0  0
 10  8  1  0     0  0
 11  5  1  0     0  0
 12  4  1  0     0  0
 13 11  1  0     0  0
 14 22  1  0     0  0
 15  6  1  0     0  0
 16 15  1  0     0  0
 17 13  2  0     0  0
 18 12  2  0     0  0
 19 14  2  0     0  0
 20 12  1  0     0  0
 21 17  1  0     0  0
 22 21  1  0     0  0
 23 27  1  0     0  0
 24 14  1  0     0  0
 25 34  1  0     0  0
 26 28  1  0     0  0
 27 29  2  0     0  0
 28 25  2  0     0  0
 29 25  1  0     0  0
 30 23  1  0     0  0
 31 13  1  0     0  0
 32 17  1  0     0  0
 33 20  1  0     0  0
 34 36  1  0     0  0
 35 33  1  0     0  0
 36 35  1  0     0  0
 37 31  2  0     0  0
 38 37  1  0     0  0
 10  4  2  0     0  0
  9  7  1  0     0  0
  9 16  1  0     0  0
 38 32  2  0     0  0
 23 26  2  0     0  0
M  END