
  SciTegic01161211242D

 41 46  0  0  0  0            999 V2000
   14.7550   -2.3255    0.0000 C   0  0
   15.4409   -1.8675    0.0000 C   0  0
   16.2124   -2.1565    0.0000 N   0  0
   15.4713   -1.0463    0.0000 C   0  0
   16.2654   -0.8226    0.0000 N   0  0
   16.7181   -1.5082    0.0000 C   0  0
   17.5101   -1.2895    0.0000 S   0  0
   16.7775   -0.1802    0.0000 C   0  0
   17.5476   -0.4729    0.0000 C   0  0
   18.1840    0.0473    0.0000 C   0  0
   18.0507    0.8597    0.0000 C   0  0
   17.2772    1.1502    0.0000 C   0  0
   16.6440    0.6282    0.0000 C   0  0
   13.3277   -2.3291    0.0000 C   0  0
   13.3266   -3.1565    0.0000 C   0  0
   14.0414   -3.5694    0.0000 C   0  0
   14.7578   -3.1560    0.0000 C   0  0
   14.0396   -1.9164    0.0000 C   0  0
   12.6118   -3.5684    0.0000 N   0  0
   11.8976   -3.1554    0.0000 C   0  0
   11.1828   -3.5673    0.0000 N   0  0
   11.8983   -2.3304    0.0000 O   0  0
   10.4687   -3.1542    0.0000 C   0  0
   10.3874   -2.3309    0.0000 C   0  0
    9.5805   -2.1588    0.0000 C   0  0
    9.1674   -2.8730    0.0000 O   0  0
    9.7190   -3.4864    0.0000 N   0  0
    9.2456   -1.4048    0.0000 C   0  0
    9.7310   -0.7378    0.0000 C   0  0
    8.4167   -1.4042    0.0000 C   0  0
    8.8250   -0.6875    0.0000 C   0  0
   18.7409    1.3115    0.0000 C   0  0
   19.4774    0.9396    0.0000 C   0  0
   20.1676    1.3915    0.0000 C   0  0
   20.9041    1.0196    0.0000 N   0  0
   20.1215    2.2152    0.0000 O   0  0
   20.9441    0.1902    0.0000 C   0  0
   21.6764   -0.1818    0.0000 C   0  0
   22.3693    0.2666    0.0000 O   0  0
   22.3251    1.0914    0.0000 C   0  0
   21.5879    1.4677    0.0000 C   0  0
 15 19  1  0
  8  9  2  0
 19 20  1  0
  4  2  2  0
 20 21  1  0
  9 10  1  0
 20 22  2  0
  5  6  1  0
 21 23  1  0
 23 24  1  0
 10 11  2  0
  2  3  1  0
 11 12  1  0
 24 25  2  0
 25 26  1  0
 26 27  1  0
 27 23  2  0
 12 13  2  0
 25 28  1  0
 13  8  1  0
 28 29  1  0
  1  2  1  0
 28 30  1  0
  6  7  1  0
 28 31  1  0
 14 15  2  0
 11 32  1  0
  7  9  1  0
 32 33  1  0
 15 16  1  0
 33 34  1  0
  8  5  1  0
 34 35  1  0
 16 17  2  0
 34 36  2  0
 35 37  1  0
 17  1  1  0
  3  6  2  0
  1 18  2  0
 18 14  1  0
  5  4  1  0
 35 41  1  0
 37 38  1  0
 38 39  1  0
 39 40  1  0
 40 41  1  0
M  END