
  SciTegic11201309402D

 65 69  0  0  1  0            999 V2000
   -1.3458   -3.2667    0.0000 C   0  0  2  0  0  0
    2.5167   -5.1042    0.0000 N   0  0
    2.3042   -4.3125    0.0000 C   0  0
   -1.3375   -2.4417    0.0000 C   0  0  2  0  0  0
   -2.7250   -2.8042    0.0000 C   0  0
   -2.1375   -2.2250    0.0000 N   0  0
   -2.0583   -3.6750    0.0000 O   0  0
    0.7917   -3.6875    0.0000 C   0  0  1  0  0  0
    3.0542   -2.0375    0.0000 C   0  0
   -0.6250   -2.0292    0.0000 C   0  0  2  0  0  0
    0.0750   -4.9167    0.0000 C   0  0
    2.2250   -5.8792    0.0000 C   0  0
    3.0417   -1.2125    0.0000 C   0  0  1  0  0  0
    3.7625   -0.7917    0.0000 C   0  0  1  0  0  0
    0.7917   -4.5042    0.0000 C   0  0  2  0  0  0
    1.5167   -2.4542    0.0000 C   0  0  1  0  0  0
    1.5042   -4.1000    0.0000 O   0  0
    1.5125   -3.2792    0.0000 C   0  0  1  0  0  0
   -0.6208   -1.2042    0.0000 C   0  0
   -0.6375   -4.5042    0.0000 O   0  0
    2.3417   -2.4542    0.0000 O   0  0
    0.8042   -2.0375    0.0000 C   0  0  2  0  0  0
   -0.6333   -3.6792    0.0000 C   0  0  2  0  0  0
    3.7667   -2.4417    0.0000 O   0  0
    3.7542    0.0333    0.0000 N   0  0
    2.8625   -6.4000    0.0000 O   0  0
    0.0917   -0.7917    0.0000 C   0  0  1  0  0  0
    0.8042   -1.2125    0.0000 C   0  0
    4.4792   -1.2042    0.0000 C   0  0
   -2.3500   -1.4250    0.0000 C   0  0
    3.3417   -5.1542    0.0000 C   0  0  2  0  0  0
    2.8875   -3.7250    0.0000 O   0  0
   -2.9833    0.9625    0.0000 C   0  0
   -3.5500   -2.8000    0.0000 O   0  0
    0.0667   -5.7417    0.0000 O   0  0
    1.4250   -6.0917    0.0000 O   0  0
    4.4792   -2.0292    0.0000 C   0  0  1  0  0  0
   -1.3333   -0.7917    0.0000 O   0  0
   -3.7833    1.1833    0.0000 C   0  0
    3.5542   -5.9500    0.0000 C   0  0
   -2.7708    0.1708    0.0000 C   0  0
    2.4542   -0.6250    0.0000 O   0  0
   -1.7583   -3.9792    0.0000 C   0  0
   -4.3708    0.5958    0.0000 C   0  0
    4.4667    0.4500    0.0000 C   0  0
    1.3875   -1.4500    0.0000 O   0  0
   -3.3583   -0.4125    0.0000 C   0  0
   -3.1458   -1.2042    0.0000 C   0  0
   -2.4000    1.5500    0.0000 Cl  0  0
   -1.3458   -1.6167    0.0000 C   0  0
   -3.9958    1.9708    0.0000 Cl  0  0
    1.5042   -4.9292    0.0000 C   0  0
   -4.1583   -0.2042    0.0000 C   0  0
    2.2250   -3.6917    0.0000 C   0  0
    1.6292   -2.0375    0.0000 C   0  0
    3.0375    0.4375    0.0000 C   0  0
   -1.3500   -4.0875    0.0000 C   0  0
    0.1000    0.0333    0.0000 C   0  0
    3.7542   -4.4375    0.0000 C   0  0
    5.1917   -2.4417    0.0000 C   0  0
    4.5417    1.2708    0.0000 C   0  0
    5.2167    0.1208    0.0000 C   0  0
    1.3792   -0.6250    0.0000 C   0  0
   -1.3583   -4.9125    0.0000 C   0  0
   -1.4673   -1.4502    0.0000 H   0  0
  2  3  1  0
  3 17  1  0
  4  1  1  0
  5  7  1  0
  4  6  1  0
  1  7  1  0
  8 15  1  0
 21  9  1  0
 10  4  1  0
 11 20  1  0
 12  2  1  0
 13  9  1  0
 14 13  1  0
 15 11  1  0
 16 18  1  0
  8 17  1  1
 18  8  1  0
 19 10  1  0
 20 23  1  0
 16 21  1  6
 22 28  1  0
 23  1  1  0
 24  9  1  0
 14 25  1  1
 26 12  1  0
 27 19  1  0
 28 27  1  0
 29 37  1  0
 30  6  1  0
 31  2  1  0
 32  3  2  0
 33 41  1  0
 34  5  2  0
 35 11  2  0
 36 12  2  0
 37 24  1  0
 38 19  2  0
 39 44  1  0
 40 31  1  0
 41 47  2  0
 13 42  1  6
  1 43  1  6
 44 53  2  0
 45 25  1  0
 22 46  1  0
 47 48  1  0
 48 30  1  0
 49 33  1  0
 10 50  1  6
 51 39  1  0
 15 52  1  1
 53 47  1  0
 18 54  1  1
 22 55  1  1
 56 25  1  0
 23 57  1  1
 27 58  1  6
 31 59  1  1
 37 60  1  1
 61 45  1  0
 62 45  1  0
 63 46  1  0
 64 57  1  0
  5  6  1  0
 16 22  1  0
 39 33  2  0
 40 26  1  0
 29 14  1  0
  4 65  1  1
M  END