
          11280715492D 1   1.00000     0.00000     0

 69 75  0     1  0            999 V2000
    9.5830   -1.2387    0.0000 C   0  0  0  0  0  0           0  0  0
    9.5955   -2.8909    0.0000 N   0  0  0  0  0  0           0  0  0
   11.7290   -1.6345    0.0000 C   0  0  0  0  0  0           0  0  0
   12.4304   -0.3911    0.0000 N   0  0  0  0  0  0           0  0  0
   12.4372   -1.2161    0.0000 C   0  0  1  0  0  0           0  0  0
   13.1565   -1.6226    0.0000 C   0  0  0  0  0  0           0  0  0
   13.8689   -1.2041    0.0000 C   0  0  0  0  0  0           0  0  0
   13.8620   -0.3792    0.0000 C   0  0  0  0  0  0           0  0  0
   14.5703    0.0392    0.0000 C   0  0  0  0  0  0           0  0  0
   15.2896   -0.3673    0.0000 C   0  0  0  0  0  0           0  0  0
   16.0020    0.0511    0.0000 O   0  0  0  0  0  0           0  0  0
   15.2964   -1.1923    0.0000 C   0  0  0  0  0  0           0  0  0
   14.5840   -1.6107    0.0000 C   0  0  0  0  0  0           0  0  0
   11.7359   -2.4594    0.0000 O   0  0  0  0  0  0           0  0  0
   11.0097   -1.2279    0.0000 N   0  0  3  0  0  0           0  0  0
   14.5909   -2.4357    0.0000 C   0  0  0  0  0  0           0  0  0
   13.1414    0.0273    0.0000 C   0  0  0  0  0  0           0  0  0
   11.0068   -0.4019    0.0000 C   0  0  0  0  0  0           0  0  0
   10.3028   -1.6497    0.0000 C   0  0  3  0  0  0           0  0  0
    9.5774   -0.4116    0.0000 C   0  0  0  0  0  0           0  0  0
   10.2885    0.0024    0.0000 C   0  0  0  0  0  0           0  0  0
   10.2845    0.8233    0.0000 C   0  0  0  0  0  0           0  0  0
    9.5703    1.2312    0.0000 C   0  0  0  0  0  0           0  0  0
    8.8585    0.8122    0.0000 C   0  0  0  0  0  0           0  0  0
    8.8660   -0.0073    0.0000 C   0  0  0  0  0  0           0  0  0
   10.3107   -2.4747    0.0000 C   0  0  0  0  0  0           0  0  0
   11.0291   -2.8804    0.0000 O   0  0  0  0  0  0           0  0  0
    5.3057   -2.8806    0.0000 C   0  0  0  0  0  0           0  0  0
    5.3057   -3.7098    0.0000 C   0  0  0  0  0  0           0  0  0
    6.0219   -4.1223    0.0000 N   0  0  0  0  0  0           0  0  0
    6.7339   -3.7098    0.0000 C   0  0  0  0  0  0           0  0  0
    6.7339   -2.8806    0.0000 C   0  0  0  0  0  0           0  0  0
    6.0219   -2.4640    0.0000 N   0  0  0  0  0  0           0  0  0
    7.4520   -4.1275    0.0000 O   0  0  0  0  0  0           0  0  0
    4.5859   -2.4702    0.0000 C   0  0  0  0  0  0           0  0  0
    7.4538   -2.4702    0.0000 C   0  0  0  0  0  0           0  0  0
    4.5877   -4.1275    0.0000 C   0  0  0  0  0  0           0  0  0
    3.8719   -3.7174    0.0000 C   0  0  0  0  0  0           0  0  0
    8.1660   -2.8866    0.0000 C   0  0  0  0  0  0           0  0  0
    8.8827   -2.4780    0.0000 C   0  0  0  0  0  0           0  0  0
    3.1587   -4.1322    0.0000 C   0  0  0  0  0  0           0  0  0
    3.1614   -4.9572    0.0000 C   0  0  0  0  0  0           0  0  0
    2.4483   -5.3720    0.0000 N   0  0  0  0  0  0           0  0  0
    0.3179   -4.1094    0.0000 C   0  0  0  0  0  0           0  0  0
   -1.1096   -4.0934    0.0000 N   0  0  0  0  0  0           0  0  0
   -0.3899   -3.6901    0.0000 C   0  0  1  0  0  0           0  0  0
   -0.3799   -2.8640    0.0000 C   0  0  0  0  0  0           0  0  0
   -1.0897   -2.4411    0.0000 C   0  0  0  0  0  0           0  0  0
   -1.8094   -2.8444    0.0000 C   0  0  0  0  0  0           0  0  0
   -2.5172   -2.4252    0.0000 C   0  0  0  0  0  0           0  0  0
   -2.5102   -1.5938    0.0000 C   0  0  0  0  0  0           0  0  0
   -3.2200   -1.1710    0.0000 O   0  0  0  0  0  0           0  0  0
   -1.7905   -1.1906    0.0000 C   0  0  0  0  0  0           0  0  0
   -1.0778   -1.6186    0.0000 C   0  0  0  0  0  0           0  0  0
    1.0376   -3.7061    0.0000 O   0  0  0  0  0  0           0  0  0
    0.3080   -4.9355    0.0000 N   0  0  3  0  0  0           0  0  0
   -0.3581   -1.2153    0.0000 C   0  0  0  0  0  0           0  0  0
   -1.8187   -3.6718    0.0000 C   0  0  0  0  0  0           0  0  0
   -0.4145   -5.3359    0.0000 C   0  0  0  0  0  0           0  0  0
    1.0045   -6.1807    0.0000 C   0  0  0  0  0  0           0  0  0
    1.0181   -5.3519    0.0000 C   0  0  3  0  0  0           0  0  0
    0.2822   -6.5839    0.0000 C   0  0  0  0  0  0           0  0  0
   -0.4230   -6.1601    0.0000 C   0  0  0  0  0  0           0  0  0
   -1.1405   -6.5588    0.0000 C   0  0  0  0  0  0           0  0  0
   -1.1541   -7.3813    0.0000 C   0  0  0  0  0  0           0  0  0
   -0.4441   -7.8033    0.0000 C   0  0  0  0  0  0           0  0  0
    0.2705   -7.4021    0.0000 C   0  0  0  0  0  0           0  0  0
    1.7373   -4.9478    0.0000 C   0  0  0  0  0  0           0  0  0
    1.7469   -4.1228    0.0000 O   0  0  0  0  0  0           0  0  0
 15 18  1  0     0  0
 31 34  1  0     0  0
  5  4  1  1     0  0
 28 35  1  0     0  0
  3  5  1  0     0  0
 32 36  1  0     0  0
 15 19  1  0     0  0
 29 37  1  0     0  0
 18 21  1  0     0  0
 37 38  1  0     0  0
 20  1  1  0     0  0
 36 39  1  0     0  0
  1 19  1  0     0  0
 39 40  1  0     0  0
  5  6  1  0     0  0
 38 41  1  0     0  0
  6  7  1  0     0  0
 41 42  1  0     0  0
 20 21  2  0     0  0
 42 43  1  0     0  0
  7  8  2  0     0  0
 21 22  1  0     0  0
  8  9  1  0     0  0
 22 23  2  0     0  0
  9 10  2  0     0  0
 23 24  1  0     0  0
 10 11  1  0     0  0
 24 25  2  0     0  0
 25 20  1  0     0  0
 10 12  1  0     0  0
 19 26  1  0     0  0
 12 13  2  0     0  0
 26 27  2  0     0  0
  2 26  1  0     0  0
 46 45  1  1     0  0
 44 46  1  0     0  0
 46 47  1  0     0  0
 47 48  1  0     0  0
 48 49  2  0     0  0
 49 50  1  0     0  0
 50 51  2  0     0  0
 51 52  1  0     0  0
 51 53  1  0     0  0
 53 54  2  0     0  0
 48 54  1  0     0  0
 44 55  2  0     0  0
 44 56  1  0     0  0
 54 57  1  0     0  0
 49 58  1  0     0  0
 28 29  1  0     0  0
 56 59  1  0     0  0
  7 13  1  0     0  0
  3 14  2  0     0  0
  3 15  1  0     0  0
 56 61  1  0     0  0
 59 63  1  0     0  0
 62 60  1  0     0  0
 60 61  1  0     0  0
 13 16  1  0     0  0
  8 17  1  0     0  0
 62 63  2  0     0  0
 63 64  1  0     0  0
 28 33  2  0     0  0
 64 65  2  0     0  0
 29 30  2  0     0  0
 65 66  1  0     0  0
 30 31  1  0     0  0
 66 67  2  0     0  0
 67 62  1  0     0  0
 31 32  2  0     0  0
 61 68  1  0     0  0
 32 33  1  0     0  0
 68 69  2  0     0  0
 43 68  1  0     0  0
 40  2  1  0     0  0
M  END