
  SciTegic01161211252D

 33 36  0  0  0  0            999 V2000
   17.0833  -24.0083    0.0000 O   0  0
   16.3708  -24.4250    0.0000 S   0  0
   17.0879  -24.8337    0.0000 O   0  0
   17.0553  -22.3541    0.0000 C   0  0
   17.7145  -21.8581    0.0000 C   0  0
   17.4483  -21.0772    0.0000 C   0  0
   16.6209  -21.0906    0.0000 N   0  0
   16.3821  -21.8794    0.0000 N   0  0
   16.1246  -20.4311    0.0000 C   0  0
   16.4481  -19.6710    0.0000 C   0  0
   15.9518  -19.0129    0.0000 C   0  0
   15.1321  -19.1137    0.0000 C   0  0
   14.8111  -19.8783    0.0000 C   0  0
   15.3094  -20.5332    0.0000 C   0  0
   17.9244  -20.4061    0.0000 C   0  0
   18.7471  -20.4812    0.0000 C   0  0
   19.2216  -19.8073    0.0000 C   0  0
   18.8746  -19.0578    0.0000 C   0  0
   18.0484  -18.9864    0.0000 C   0  0
   17.5776  -19.6613    0.0000 C   0  0
   17.0680  -23.1790    0.0000 C   0  0
   16.3599  -23.6025    0.0000 N   0  0
   17.7887  -23.5805    0.0000 N   0  0
   14.6343  -18.4558    0.0000 Cl  0  0
   14.9897  -21.2937    0.0000 Cl  0  0
   18.4968  -23.1571    0.0000 C   0  0
   15.6646  -24.8508    0.0000 C   0  0
   14.9460  -24.4450    0.0000 C   0  0
   14.2385  -24.8677    0.0000 C   0  0
   14.2507  -25.6935    0.0000 C   0  0
   14.9765  -26.0947    0.0000 C   0  0
   15.6811  -25.6697    0.0000 C   0  0
   13.5433  -26.1179    0.0000 Cl  0  0
 16 17  1  0
  3  2  2  0
 17 18  2  0
  9 10  2  0
 18 19  1  0
  4  5  1  0
 19 20  2  0
 20 15  1  0
  6 15  1  0
 10 11  1  0
  4 21  1  0
 21 22  2  0
 11 12  2  0
 21 23  1  0
  5  6  1  0
 12 24  1  0
 12 13  1  0
 14 25  1  0
  6  7  1  0
 23 26  1  0
 22  2  1  0
 13 14  2  0
  2 27  1  0
 14  9  1  0
 27 28  2  0
  7  9  1  0
 28 29  1  0
  7  8  1  0
 29 30  2  0
  8  4  2  0
 30 31  1  0
 15 16  2  0
 31 32  2  0
 32 27  1  0
  2  1  2  0
 30 33  1  0
M  END