
          11280714492D 1   1.00000     0.00000     0

 28 28  0     1  0            999 V2000
    6.0042   -6.2875    0.0000 C   0  0  1  0  0  0           0  0  0
    6.5292   -6.5875    0.0000 C   0  0  1  0  0  0           0  0  0
    6.0042   -5.6875    0.0000 C   0  0  2  0  0  0           0  0  0
    7.0417   -5.6875    0.0000 C   0  0  1  0  0  0           0  0  0
    7.0417   -6.2875    0.0000 C   0  0  2  0  0  0           0  0  0
    6.5292   -5.3875    0.0000 C   0  0  2  0  0  0           0  0  0
    4.9625   -5.0792    0.0000 P   0  0  3  0  0  0           0  0  0
    5.0292   -6.9792    0.0000 P   0  0  3  0  0  0           0  0  0
    6.5375   -7.7792    0.0000 P   0  0  3  0  0  0           0  0  0
    8.0875   -5.0875    0.0000 P   0  0  3  0  0  0           0  0  0
    5.4875   -6.5875    0.0000 O   0  0  0  0  0  0           0  0  0
    5.4875   -5.3792    0.0000 O   0  0  0  0  0  0           0  0  0
    6.5292   -7.1875    0.0000 O   0  0  0  0  0  0           0  0  0
    7.5625   -5.3875    0.0000 O   0  0  0  0  0  0           0  0  0
    5.4167   -7.4375    0.0000 O   0  0  0  0  0  0           0  0  0
    7.1375   -7.7792    0.0000 O   0  0  0  0  0  0           0  0  0
    4.6250   -5.5792    0.0000 O   0  0  0  0  0  0           0  0  0
    7.6667   -4.6625    0.0000 O   0  0  0  0  0  0           0  0  0
    5.2917   -4.5875    0.0000 O   0  0  0  0  0  0           0  0  0
    4.6292   -6.5375    0.0000 O   0  0  0  0  0  0           0  0  0
    5.9375   -7.7792    0.0000 O   0  0  0  0  0  0           0  0  0
    6.5417   -8.3792    0.0000 O   0  0  0  0  0  0           0  0  0
    4.5792   -7.3792    0.0000 O   0  0  0  0  0  0           0  0  0
    8.3917   -5.6000    0.0000 O   0  0  0  0  0  0           0  0  0
    4.4625   -4.7542    0.0000 O   0  0  0  0  0  0           0  0  0
    8.6042   -4.7875    0.0000 O   0  0  0  0  0  0           0  0  0
    6.5292   -4.7875    0.0000 O   0  0  0  0  0  0           0  0  0
    7.5625   -6.5792    0.0000 O   0  0  0  0  0  0           0  0  0
  2  1  1  0     0  0
  3  1  1  0     0  0
  4  6  1  0     0  0
  5  2  1  0     0  0
  6  3  1  0     0  0
  7 12  1  0     0  0
  8 11  1  0     0  0
  9 13  1  0     0  0
 10 14  1  0     0  0
  1 11  1  6     0  0
  3 12  1  1     0  0
  2 13  1  1     0  0
  4 14  1  1     0  0
 15  8  2  0     0  0
 16  9  2  0     0  0
 17  7  2  0     0  0
 18 10  2  0     0  0
 19  7  1  0     0  0
 20  8  1  0     0  0
 21  9  1  0     0  0
 22  9  1  0     0  0
 23  8  1  0     0  0
 24 10  1  0     0  0
 25  7  1  0     0  0
 26 10  1  0     0  0
  6 27  1  1     0  0
  5 28  1  6     0  0
  4  5  1  0     0  0
M  END