
          11280714522D 1   1.00000     0.00000     0

 35 38  0     0  0            999 V2000
    0.5542   -2.4250    0.0000 C   0  0  0  0  0  0           0  0  0
    1.2167   -1.9417    0.0000 N   0  0  0  0  0  0           0  0  0
    0.2917   -1.7500    0.0000 C   0  0  3  0  0  0           0  0  0
    1.8917   -2.4250    0.0000 C   0  0  0  0  0  0           0  0  0
    0.4417   -1.0625    0.0000 C   0  0  3  0  0  0           0  0  0
   -1.0208   -1.8292    0.0000 C   0  0  3  0  0  0           0  0  0
   -0.6833   -2.6250    0.0000 O   0  0  0  0  0  0           0  0  0
    0.8042   -3.2125    0.0000 O   0  0  0  0  0  0           0  0  0
   -0.3458   -1.2875    0.0000 C   0  0  3  0  0  0           0  0  0
    1.6292   -3.2125    0.0000 C   0  0  0  0  0  0           0  0  0
    0.9167   -1.5375    0.0000 C   0  0  0  0  0  0           0  0  0
    2.5542   -2.1500    0.0000 C   0  0  0  0  0  0           0  0  0
    1.3917   -1.0625    0.0000 C   0  0  0  0  0  0           0  0  0
   -0.9375    0.4125    0.0000 C   0  0  0  0  0  0           0  0  0
   -1.2958   -1.2917    0.0000 C   0  0  0  0  0  0           0  0  0
   -0.8208   -0.8125    0.0000 C   0  0  0  0  0  0           0  0  0
    0.9542   -0.3542    0.0000 C   0  0  0  0  0  0           0  0  0
    2.6417   -1.4000    0.0000 O   0  0  0  0  0  0           0  0  0
   -1.7375    0.2000    0.0000 O   0  0  0  0  0  0           0  0  0
    3.2042   -2.5542    0.0000 N   0  0  0  0  0  0           0  0  0
    0.3667    0.2333    0.0000 C   0  0  0  0  0  0           0  0  0
    6.2542   -2.1292    0.0000 C   0  0  3  0  0  0           0  0  0
   -0.3458   -0.1792    0.0000 C   0  0  0  0  0  0           0  0  0
   -0.7208    1.2125    0.0000 O   0  0  0  0  0  0           0  0  0
    2.2167   -1.0375    0.0000 C   0  0  0  0  0  0           0  0  0
    5.6667   -2.7167    0.0000 C   0  0  0  0  0  0           0  0  0
    1.3542    0.3750    0.0000 C   0  0  0  0  0  0           0  0  0
    3.7917   -1.9667    0.0000 C   0  0  0  0  0  0           0  0  0
    6.8375   -2.7125    0.0000 C   0  0  0  0  0  0           0  0  0
    6.2500   -2.9542    0.0000 C   0  0  0  0  0  0           0  0  0
    7.0500   -1.9167    0.0000 C   0  0  0  0  0  0           0  0  0
    5.0875   -2.1375    0.0000 C   0  0  0  0  0  0           0  0  0
    4.3750   -2.5542    0.0000 C   0  0  0  0  0  0           0  0  0
    2.6167   -0.3125    0.0000 C   0  0  0  0  0  0           0  0  0
    2.1792    0.3875    0.0000 C   0  0  0  0  0  0           0  0  0
  2  1  2  0     0  0
  3  1  1  0     0  0
  4  2  1  0     0  0
  5  3  1  0     0  0
  6  3  1  0     0  0
  7  6  1  0     0  0
  8  1  1  0     0  0
  9  5  1  0     0  0
 10  8  1  0     0  0
 11  5  1  0     0  0
 12  4  1  0     0  0
 13 11  1  0     0  0
 14 23  1  0     0  0
 15  6  1  0     0  0
 16 15  1  0     0  0
 17 13  2  0     0  0
 18 12  2  0     0  0
 19 14  2  0     0  0
 20 12  1  0     0  0
 21 17  1  0     0  0
 22 26  1  0     0  0
 23 21  1  0     0  0
 24 14  1  0     0  0
 25 13  1  0     0  0
 26 32  1  0     0  0
 27 17  1  0     0  0
 28 20  1  0     0  0
 29 22  1  0     0  0
 30 22  1  0     0  0
 31 22  1  0     0  0
 32 33  1  0     0  0
 33 28  1  0     0  0
 34 25  2  0     0  0
 35 34  1  0     0  0
 10  4  2  0     0  0
  9  7  1  0     0  0
  9 16  1  0     0  0
 35 27  2  0     0  0
M  END