
  Mrv0541 04051115152D          

 33 35  0  0  0  0            999 V2000
  -11.9083    0.0898    0.0000 C   0  0  0  0  0  0  0  0  0  0  0  0
  -11.1938   -0.3227    0.0000 C   0  0  0  0  0  0  0  0  0  0  0  0
  -10.4793    0.0898    0.0000 C   0  0  2  0  0  0  0  0  0  0  0  0
  -10.8918    0.8043    0.0000 C   0  0  0  0  0  0  0  0  0  0  0  0
  -11.7168    0.8043    0.0000 O   0  0  0  0  0  0  0  0  0  0  0  0
  -10.4793    1.5188    0.0000 O   0  0  0  0  0  0  0  0  0  0  0  0
  -10.0668   -0.6246    0.0000 C   0  0  0  0  0  0  0  0  0  0  0  0
   -9.7649    0.5023    0.0000 O   0  0  0  0  0  0  0  0  0  0  0  0
   -9.0504    0.0898    0.0000 C   0  0  0  0  0  0  0  0  0  0  0  0
   -8.3359    0.5023    0.0000 C   0  0  0  0  0  0  0  0  0  0  0  0
   -7.6215    0.0898    0.0000 C   0  0  0  0  0  0  0  0  0  0  0  0
   -9.0504   -0.7352    0.0000 C   0  0  0  0  0  0  0  0  0  0  0  0
   -8.3359   -1.1477    0.0000 C   0  0  0  0  0  0  0  0  0  0  0  0
   -7.6215   -0.7352    0.0000 C   0  0  0  0  0  0  0  0  0  0  0  0
   -6.9070   -1.1477    0.0000 C   0  0  0  0  0  0  0  0  0  0  0  0
   -6.1925   -0.7352    0.0000 C   0  0  0  0  0  0  0  0  0  0  0  0
   -5.4780   -1.1477    0.0000 N   0  0  0  0  0  0  0  0  0  0  0  0
   -4.7636   -0.7352    0.0000 C   0  0  0  0  0  0  0  0  0  0  0  0
   -4.0491   -1.1477    0.0000 C   0  0  0  0  0  0  0  0  0  0  0  0
   -3.3346   -0.7352    0.0000 C   0  0  0  0  0  0  0  0  0  0  0  0
   -2.6202   -1.1477    0.0000 C   0  0  0  0  0  0  0  0  0  0  0  0
   -1.9057   -0.7352    0.0000 C   0  0  0  0  0  0  0  0  0  0  0  0
   -1.1912   -1.1477    0.0000 C   0  0  0  0  0  0  0  0  0  0  0  0
   -0.4767   -0.7352    0.0000 C   0  0  0  0  0  0  0  0  0  0  0  0
   -5.4780   -1.9727    0.0000 C   0  0  0  0  0  0  0  0  0  0  0  0
   -6.1455   -2.4576    0.0000 O   0  0  0  0  0  0  0  0  0  0  0  0
   -5.8905   -3.2422    0.0000 C   0  0  0  0  0  0  0  0  0  0  0  0
   -6.3030   -3.9567    0.0000 C   0  0  0  0  0  0  0  0  0  0  0  0
   -5.8905   -4.6711    0.0000 C   0  0  0  0  0  0  0  0  0  0  0  0
   -5.0655   -4.6711    0.0000 C   0  0  0  0  0  0  0  0  0  0  0  0
   -4.6530   -3.9567    0.0000 C   0  0  0  0  0  0  0  0  0  0  0  0
   -5.0655   -3.2422    0.0000 C   0  0  0  0  0  0  0  0  0  0  0  0
   -4.8106   -2.4576    0.0000 N   0  0  0  0  0  0  0  0  0  0  0  0
  1  2  1  0  0  0  0
  2  3  1  0  0  0  0
  3  8  1  1  0  0  0
  3  7  1  6  0  0  0
  4  3  1  0  0  0  0
  4  6  2  0  0  0  0
  4  5  1  0  0  0  0
  9  8  1  0  0  0  0
 12  9  2  0  0  0  0
 10  9  1  0  0  0  0
 11 10  2  0  0  0  0
 11 14  1  0  0  0  0
 13 12  1  0  0  0  0
 13 14  2  0  0  0  0
 15 14  1  0  0  0  0
 15 16  1  0  0  0  0
 16 17  1  0  0  0  0
 25 17  1  0  0  0  0
 18 17  1  0  0  0  0
 19 18  1  0  0  0  0
 20 19  1  0  0  0  0
 21 20  1  0  0  0  0
 22 21  1  0  0  0  0
 23 22  1  0  0  0  0
 24 23  1  0  0  0  0
 25 33  2  0  0  0  0
 25 26  1  0  0  0  0
 27 26  1  0  0  0  0
 28 27  2  0  0  0  0
 32 27  1  0  0  0  0
 29 28  1  0  0  0  0
 30 29  2  0  0  0  0
 30 31  1  0  0  0  0
 31 32  2  0  0  0  0
 32 33  1  0  0  0  0
M  END