
          11280715322D 1   1.00000     0.00000     0

 29 32  0     0  0            999 V2000
    2.2375   -2.8792    0.0000 C   0  0  0  0  0  0           0  0  0
    1.7542   -2.5292    0.0000 C   0  0  0  0  0  0           0  0  0
    2.1667   -3.4750    0.0000 C   0  0  0  0  0  0           0  0  0
    3.8250   -2.7500    0.0000 C   0  0  0  0  0  0           0  0  0
    1.2042   -2.7667    0.0000 C   0  0  0  0  0  0           0  0  0
    2.7792   -2.6375    0.0000 C   0  0  0  0  0  0           0  0  0
    1.8167   -1.9292    0.0000 C   0  0  0  0  0  0           0  0  0
    3.2667   -2.9917    0.0000 C   0  0  0  0  0  0           0  0  0
    1.6250   -3.7167    0.0000 C   0  0  3  0  0  0           0  0  0
    4.3042   -3.1042    0.0000 N   0  0  0  0  0  0           0  0  0
    6.5042   -2.1542    0.0000 C   0  0  0  0  0  0           0  0  0
    1.3792   -1.5250    0.0000 S   0  0  0  0  0  0           0  0  0
    2.6542   -3.8292    0.0000 C   0  0  0  0  0  0           0  0  0
    1.1417   -3.3625    0.0000 C   0  0  0  0  0  0           0  0  0
    5.9542   -2.3917    0.0000 C   0  0  0  0  0  0           0  0  0
    2.3417   -1.6292    0.0000 C   0  0  0  0  0  0           0  0  0
    3.8917   -2.1542    0.0000 O   0  0  0  0  0  0           0  0  0
    3.2042   -3.5875    0.0000 C   0  0  0  0  0  0           0  0  0
    1.6250   -0.9750    0.0000 C   0  0  0  0  0  0           0  0  0
    6.5750   -1.5542    0.0000 O   0  0  0  0  0  0           0  0  0
    2.2250   -1.0417    0.0000 C   0  0  0  0  0  0           0  0  0
    4.8542   -2.8667    0.0000 C   0  0  0  0  0  0           0  0  0
    5.8875   -2.9917    0.0000 C   0  0  0  0  0  0           0  0  0
    5.4667   -2.0375    0.0000 C   0  0  0  0  0  0           0  0  0
    6.9917   -2.5042    0.0000 O   0  0  0  0  0  0           0  0  0
    4.9250   -2.2792    0.0000 C   0  0  0  0  0  0           0  0  0
    5.3375   -3.2292    0.0000 C   0  0  0  0  0  0           0  0  0
    1.1917   -4.1417    0.0000 C   0  0  0  0  0  0           0  0  0
    1.9250   -4.2417    0.0000 C   0  0  0  0  0  0           0  0  0
  2  1  1  0     0  0
  3  1  1  0     0  0
  4  8  1  0     0  0
  5  2  2  0     0  0
  6  1  2  0     0  0
  7  2  1  0     0  0
  8  6  1  0     0  0
  9  3  1  0     0  0
 10  4  1  0     0  0
 11 15  1  0     0  0
 12  7  1  0     0  0
 13  3  2  0     0  0
 14  9  1  0     0  0
 15 23  2  0     0  0
 16  7  2  0     0  0
 17  4  2  0     0  0
 18  8  2  0     0  0
 19 12  1  0     0  0
 20 11  2  0     0  0
 21 16  1  0     0  0
 22 10  1  0     0  0
 23 27  1  0     0  0
 24 26  2  0     0  0
 25 11  1  0     0  0
 26 22  1  0     0  0
 27 22  2  0     0  0
 28  9  1  0     0  0
 29  9  1  0     0  0
 13 18  1  0     0  0
  5 14  1  0     0  0
 21 19  2  0     0  0
 24 15  1  0     0  0
M  END