
  SciTegic09261414482D

 67 68  0  0  0  0            999 V2000
    3.0433  -13.0111    0.0000 N   0  0
    3.7613  -12.5986    0.0000 C   0  0
    4.4751  -13.8361    0.0000 O   0  0
    4.4751  -13.0111    0.0000 C   0  0
    7.3302  -15.4860    0.0000 N   0  0
    7.3302  -16.3110    0.0000 C   0  0
    6.6185  -16.7235    0.0000 N   0  0
    8.0482  -16.7235    0.0000 N   0  0
    5.1909  -12.5986    0.0000 N   0  0
    5.9047  -13.0111    0.0000 C   0  0  2  0  0  0
    6.6185  -11.7736    0.0000 O   0  0
    6.6185  -12.5986    0.0000 C   0  0
    5.9047  -13.8361    0.0000 C   0  0
    6.6185  -14.2486    0.0000 C   0  0
    6.6185  -15.0735    0.0000 C   0  0
    7.3302  -13.0111    0.0000 N   0  0
    8.0482  -12.5986    0.0000 C   0  0  2  0  0  0
    8.7661  -13.8361    0.0000 O   0  0
    8.7661  -13.0111    0.0000 C   0  0
    8.0482  -11.7736    0.0000 C   0  0
    8.7661  -11.3611    0.0000 C   0  0
    7.3302  -11.3611    0.0000 C   0  0
    9.4799  -12.5986    0.0000 N   0  0
   10.1916  -13.0111    0.0000 C   0  0  2  0  0  0
   11.6170  -13.0111    0.0000 O   0  0
   10.9054  -12.5986    0.0000 C   0  0
   10.1916  -13.8361    0.0000 C   0  0
   10.9054  -15.0675    0.0000 C   0  0
   10.9054  -14.2486    0.0000 C   0  0
   11.6285  -13.8358    0.0000 C   0  0
   12.3418  -14.2480    0.0000 C   0  0
   12.3418  -15.0779    0.0000 C   0  0
   11.6185  -15.4895    0.0000 C   0  0
   13.0539  -15.4846    0.0000 O   0  0
   10.9054  -11.7736    0.0000 N   0  0
   11.6170  -11.3611    0.0000 C   0  0  2  0  0  0
   12.3350  -12.5986    0.0000 O   0  0
   12.3350  -11.7736    0.0000 C   0  0
   11.6170  -10.5361    0.0000 C   0  0  1  0  0  0
   12.3350  -10.1236    0.0000 C   0  0
   10.9054  -10.1236    0.0000 C   0  0
   10.1916  -10.5361    0.0000 C   0  0
   13.0530  -11.3611    0.0000 N   0  0
   13.7605  -11.7736    0.0000 C   0  0  2  0  0  0
   15.1922  -11.7736    0.0000 O   0  0
   14.4784  -11.3611    0.0000 C   0  0
   13.7605  -12.5986    0.0000 C   0  0
   15.2362  -12.6755    0.0000 N   0  0
   15.7873  -13.2901    0.0000 C   0  0
   15.3714  -14.0025    0.0000 N   0  0
   14.5656  -13.8271    0.0000 C   0  0
   14.4784  -13.0111    0.0000 C   0  0
   14.4784  -10.5361    0.0000 N   0  0
   15.2427  -10.2232    0.0000 C   0  0
   15.8994  -11.4923    0.0000 O   0  0
   15.9383  -10.6712    0.0000 C   0  0
   16.6715  -10.2886    0.0000 N   0  0
   17.3842  -10.6992    0.0000 C   0  0
   18.0962   -9.4554    0.0000 O   0  0
   18.0965  -10.2825    0.0000 C   0  0
   18.8132  -10.6890    0.0000 O   0  0
    3.0423  -13.8361    0.0000 C   0  0
   13.7952  -10.0763    0.0000 C   0  0
   17.3914  -11.5242    0.0000 C   0  0
   18.1068  -11.9303    0.0000 C   0  0
   16.6793  -11.9388    0.0000 C   0  0
   18.1141  -12.7553    0.0000 C   0  0
  4  9  1  0
 12 16  1  0
 19 23  1  0
 26 35  1  0
 38 43  1  0
 46 53  1  0
 56 57  1  0
 60 61  1  0
  2  1  1  0
  2  4  1  0
  4  3  2  0
  5  6  1  0
  6  7  1  0
  6  8  2  0
 10  9  1  6
 10 12  1  0
 12 11  2  0
 10 13  1  0
 13 14  1  0
 14 15  1  0
 15  5  1  0
 17 16  1  1
 17 19  1  0
 19 18  2  0
 17 20  1  0
 20 21  1  0
 20 22  1  0
 24 23  1  6
 24 26  1  0
 26 25  2  0
 24 27  1  0
 27 29  1  0
 28 29  2  0
 29 30  1  0
 30 31  2  0
 31 32  1  0
 32 33  2  0
 33 28  1  0
 32 34  1  0
 36 35  1  1
 36 38  1  0
 38 37  2  0
 36 39  1  0
 39 40  1  6
 39 41  1  0
 41 42  1  0
 44 43  1  6
 44 46  1  0
 46 45  2  0
 44 47  1  0
 47 52  1  0
 48 49  1  0
 49 50  2  0
 50 51  1  0
 51 52  2  0
 52 48  1  0
 53 54  1  0
 54 56  1  0
 56 55  2  0
 58 57  1  0
 58 60  1  0
 60 59  2  0
  1 62  1  0
 53 63  1  0
 58 64  1  0
 64 65  1  0
 64 66  1  0
 65 67  1  0
M  END