
  CDK    9/16/09,10:7

 17 18  0  0  0  0  0  0  0  0999 V2000
   11.4654  -22.4700    0.0000 C   0  0  0  0  0  0  0  0  0  0  0  0
   12.0339  -23.0679    0.0000 O   0  0  0  0  0  0  0  0  0  0  0  0
   12.7783  -22.7121    0.0000 C   0  0  0  0  0  0  0  0  0  0  0  0
   12.6697  -21.8941    0.0000 C   0  0  0  0  0  0  0  0  0  0  0  0
   11.8585  -21.7447    0.0000 C   0  0  0  0  0  0  0  0  0  0  0  0
   13.5037  -23.1050    0.0000 C   0  0  0  0  0  0  0  0  0  0  0  0
   13.5261  -23.9297    0.0000 C   0  0  0  0  0  0  0  0  0  0  0  0
   14.2067  -22.6732    0.0000 C   0  0  0  0  0  0  0  0  0  0  0  0
   14.2516  -24.3226    0.0000 C   0  0  0  0  0  0  0  0  0  0  0  0
   14.2739  -25.1474    0.0000 N   0  0  0  0  0  0  0  0  0  0  0  0
   14.9298  -23.0695    0.0000 C   0  0  0  0  0  0  0  0  0  0  0  0
   15.6322  -22.6383    0.0000 C   0  0  0  0  0  0  0  0  0  0  0  0
   15.6102  -21.8128    0.0000 C   0  0  0  0  0  0  0  0  0  0  0  0
   14.8798  -21.4201    0.0000 C   0  0  0  0  0  0  0  0  0  0  0  0
   14.1803  -21.8535    0.0000 C   0  0  0  0  0  0  0  0  0  0  0  0
   13.4531  -21.4637    0.0000 O   0  0  0  0  0  0  0  0  0  0  0  0
   13.4270  -20.6391    0.0000 C   0  0  0  0  0  0  0  0  0  0  0  0
  3  4  2  0  0  0  0 
  7  9  1  0  0  0  0 
  4  5  1  0  0  0  0 
  9 10  1  0  0  0  0 
  5  1  2  0  0  0  0 
  8 11  2  0  0  0  0 
  1  2  1  0  0  0  0 
 11 12  1  0  0  0  0 
  3  6  1  0  0  0  0 
 12 13  2  0  0  0  0 
 13 14  1  0  0  0  0 
  6  7  1  0  0  0  0 
 14 15  2  0  0  0  0 
 15  8  1  0  0  0  0 
  2  3  1  0  0  0  0 
 15 16  1  0  0  0  0 
  6  8  1  0  0  0  0 
 16 17  1  0  0  0  0 
M  END