
          11280715112D 1   1.00000     0.00000     0

 22 24  0     0  0            999 V2000
   -0.3083   -0.0917    0.0000 N   0  0  0  0  0  0           0  0  0
   -0.6083    0.4208    0.0000 C   0  0  0  0  0  0           0  0  0
   -0.2083    0.8583    0.0000 N   0  0  0  0  0  0           0  0  0
    0.2750    0.0208    0.0000 C   0  0  0  0  0  0           0  0  0
    0.3375    0.6125    0.0000 C   0  0  0  0  0  0           0  0  0
   -2.5833   -0.4542    0.0000 N   0  0  0  0  0  0           0  0  0
   -2.7625    0.1208    0.0000 C   0  0  0  0  0  0           0  0  0
   -3.5500   -0.4500    0.0000 N   0  0  0  0  0  0           0  0  0
   -3.0708   -0.8042    0.0000 C   0  0  0  0  0  0           0  0  0
    0.7167   -0.3792    0.0000 C   0  0  0  0  0  0           0  0  0
    1.7417   -0.9917    0.0000 C   0  0  0  0  0  0           0  0  0
   -3.3625    0.1208    0.0000 C   0  0  0  0  0  0           0  0  0
    2.2542   -1.2875    0.0000 N   0  0  3  0  0  0           0  0  0
   -1.2083    0.4208    0.0000 S   0  0  0  0  0  0           0  0  0
    0.7125   -0.9792    0.0000 C   0  0  0  0  0  0           0  0  0
    1.2292   -0.0875    0.0000 C   0  0  0  0  0  0           0  0  0
    1.7500   -0.3875    0.0000 C   0  0  0  0  0  0           0  0  0
    1.2250   -1.2792    0.0000 C   0  0  0  0  0  0           0  0  0
   -2.2458    0.4125    0.0000 C   0  0  0  0  0  0           0  0  0
   -1.7250    0.1125    0.0000 C   0  0  0  0  0  0           0  0  0
    2.7792   -0.9917    0.0000 C   0  0  0  0  0  0           0  0  0
    2.2542   -1.8875    0.0000 C   0  0  0  0  0  0           0  0  0
  2  1  2  0     0  0
  3  2  1  0     0  0
  4  1  1  0     0  0
  5  4  2  0     0  0
  6  7  1  0     0  0
  7 19  1  0     0  0
  8 12  1  0     0  0
  9  6  2  0     0  0
 10  4  1  0     0  0
 11 17  1  0     0  0
 12  7  2  0     0  0
 13 11  1  0     0  0
 14  2  1  0     0  0
 15 10  2  0     0  0
 16 10  1  0     0  0
 17 16  2  0     0  0
 18 15  1  0     0  0
 19 20  1  0     0  0
 20 14  1  0     0  0
 21 13  1  0     0  0
 22 13  1  0     0  0
  3  5  1  0     0  0
 11 18  2  0     0  0
  9  8  1  0     0  0
M  END