
          11280715072D 1   1.00000     0.00000     0

 42 46  0     0  0            999 V2000
    3.1542   -3.1875    0.0000 C   0  0  0  0  0  0           0  0  0
    7.9167    0.5208    0.0000 C   0  0  0  0  0  0           0  0  0
    3.5167   -2.4417    0.0000 C   0  0  0  0  0  0           0  0  0
    7.1875    0.1208    0.0000 C   0  0  0  0  0  0           0  0  0
    2.3292   -3.2375    0.0000 C   0  0  0  0  0  0           0  0  0
    7.9292    1.3458    0.0000 C   0  0  0  0  0  0           0  0  0
    1.8750   -2.5500    0.0000 C   0  0  0  0  0  0           0  0  0
    7.2292    1.7708    0.0000 C   0  0  0  0  0  0           0  0  0
    3.0625   -1.7542    0.0000 C   0  0  0  0  0  0           0  0  0
    6.4792    0.5583    0.0000 C   0  0  0  0  0  0           0  0  0
    6.5042    1.3833    0.0000 C   0  0  0  0  0  0           0  0  0
    2.2375   -1.8042    0.0000 C   0  0  0  0  0  0           0  0  0
    4.3417   -2.4167    0.0000 O   0  0  0  0  0  0           0  0  0
    5.0417   -1.9792    0.0000 C   0  0  0  0  0  0           0  0  0
    7.1625   -0.7042    0.0000 O   0  0  0  0  0  0           0  0  0
    5.7750   -2.3667    0.0000 C   0  0  0  0  0  0           0  0  0
    5.0167   -1.1625    0.0000 C   0  0  0  0  0  0           0  0  0
    6.4417   -1.1000    0.0000 C   0  0  0  0  0  0           0  0  0
    8.6167    0.0875    0.0000 C   0  0  0  0  0  0           0  0  0
    3.6042   -3.8667    0.0000 C   0  0  0  0  0  0           0  0  0
    1.6417   -1.2292    0.0000 O   0  0  0  0  0  0           0  0  0
    5.9042    1.9583    0.0000 O   0  0  0  0  0  0           0  0  0
    7.0792    2.5833    0.0000 C   0  0  0  0  0  0           0  0  0
    1.0542   -2.4292    0.0000 C   0  0  0  0  0  0           0  0  0
    6.2667    2.6958    0.0000 C   0  0  0  0  0  0           0  0  0
    0.9167   -1.6167    0.0000 C   0  0  0  0  0  0           0  0  0
    5.7125   -0.7167    0.0000 C   0  0  0  0  0  0           0  0  0
    6.4750   -1.9292    0.0000 C   0  0  0  0  0  0           0  0  0
    9.3417    0.4833    0.0000 O   0  0  0  0  0  0           0  0  0
    3.2417   -4.6125    0.0000 O   0  0  0  0  0  0           0  0  0
    1.9667   -3.9750    0.0000 O   0  0  0  0  0  0           0  0  0
    8.6542    1.7333    0.0000 O   0  0  0  0  0  0           0  0  0
    5.7542    0.1708    0.0000 O   0  0  0  0  0  0           0  0  0
    3.4250   -1.0167    0.0000 O   0  0  0  0  0  0           0  0  0
    5.8042   -3.1917    0.0000 C   0  0  0  0  0  0           0  0  0
    4.2917   -0.7750    0.0000 C   0  0  0  0  0  0           0  0  0
    8.6000   -0.7375    0.0000 C   0  0  0  0  0  0           0  0  0
    4.4292   -3.8167    0.0000 C   0  0  0  0  0  0           0  0  0
    1.1417   -4.0292    0.0000 C   0  0  0  0  0  0           0  0  0
    8.6792    2.5625    0.0000 C   0  0  0  0  0  0           0  0  0
    2.9625   -0.3292    0.0000 C   0  0  0  0  0  0           0  0  0
    5.0542    0.6000    0.0000 C   0  0  0  0  0  0           0  0  0
  2  4  1  0     0  0
  3  1  1  0     0  0
  4 15  1  0     0  0
  5  1  2  0     0  0
  6  2  2  0     0  0
  7  5  1  0     0  0
  8 11  2  0     0  0
  9  3  2  0     0  0
 10  4  2  0     0  0
 11 10  1  0     0  0
 12  7  2  0     0  0
 13  3  1  0     0  0
 14 13  1  0     0  0
 15 18  1  0     0  0
 16 14  1  0     0  0
 17 14  2  0     0  0
 18 27  2  0     0  0
 19  2  1  0     0  0
 20  1  1  0     0  0
 21 12  1  0     0  0
 22 11  1  0     0  0
 23  8  1  0     0  0
 24  7  1  0     0  0
 25 22  1  0     0  0
 26 24  2  0     0  0
 27 17  1  0     0  0
 28 16  2  0     0  0
 29 19  2  0     0  0
 30 20  2  0     0  0
 31  5  1  0     0  0
 32  6  1  0     0  0
 33 10  1  0     0  0
 34  9  1  0     0  0
 35 16  1  0     0  0
 36 17  1  0     0  0
 37 19  1  0     0  0
 38 20  1  0     0  0
 39 31  1  0     0  0
 40 32  1  0     0  0
 41 34  1  0     0  0
 42 33  1  0     0  0
  9 12  1  0     0  0
 21 26  1  0     0  0
 18 28  1  0     0  0
  8  6  1  0     0  0
 25 23  2  0     0  0
M  END