
  SciTegic09171211542D

146140  0  0  0  0            999 V2000
   -1.1208   -0.0917    0.0000 O   0  0
   -1.5292    0.6208    0.0000 S   0  0
   -1.9420   -0.0890    0.0000 O   0  0
    2.0193   -1.4727    0.0000 C   0  0
    1.3047   -1.8849    0.0000 C   0  0  1  0  0  0
    1.3068   -2.7057    0.0000 C   0  0
    2.7360   -1.8812    0.0000 C   0  0
    2.7309   -2.7062    0.0000 C   0  0  1  0  0  0
    2.0145   -3.1154    0.0000 C   0  0  1  0  0  0
    2.0108   -3.9358    0.0000 C   0  0
    2.7217   -4.3532    0.0000 C   0  0
    3.4435   -3.1174    0.0000 C   0  0  2  0  0  0
    3.4339   -3.9419    0.0000 C   0  0  2  0  0  0
    4.8683   -3.1339    0.0000 C   0  0
    4.1584   -2.7111    0.0000 C   0  0
    4.8587   -3.9584    0.0000 C   0  0  1  0  0  0
    4.1426   -4.3612    0.0000 C   0  0  1  0  0  0
    4.3044   -5.1668    0.0000 C   0  0
    5.1205   -5.2618    0.0000 C   0  0
    5.4630   -4.5150    0.0000 C   0  0  2  0  0  0
    0.5897   -1.4732    0.0000 O   0  0
    3.4418   -2.2875    0.0000 C   0  0
    2.7259   -3.5231    0.0000 H   0  0
    4.1446   -3.5224    0.0000 H   0  0
    3.4257   -4.7693    0.0000 H   0  0
    5.5737   -3.5398    0.0000 C   0  0
    6.2718   -4.3525    0.0000 C   0  0  1  0  0  0
    6.8170   -4.9718    0.0000 C   0  0
    6.5355   -3.5708    0.0000 C   0  0
    6.5533   -5.7535    0.0000 C   0  0
    7.0984   -6.3727    0.0000 C   0  0
    6.8347   -7.1545    0.0000 C   0  0
    7.3798   -7.7737    0.0000 C   0  0
    6.0259   -7.3169    0.0000 C   0  0
    5.8778   -5.2259    0.0000 H   0  0
   -0.4809    1.5357    0.0000 O   0  0
   -0.0678    2.2427    0.0000 S   0  0
   -0.8890    2.2481    0.0000 O   0  0
    3.6142    2.1963    0.0000 O   0  0
    2.7893    2.1924    0.0000 S   0  0
    3.2056    1.4878    0.0000 O   0  0
    0.6003   -0.6483    0.0000 C   0  0  1  0  0  0
    1.3204   -0.2503    0.0000 O   0  0
    1.3329    0.5710    0.0000 C   0  0  1  0  0  0
    0.6257    0.9965    0.0000 C   0  0  2  0  0  0
   -0.0958    0.5944    0.0000 C   0  0  1  0  0  0
   -0.1101   -0.2331    0.0000 C   0  0  2  0  0  0
   -0.8292   -0.6375    0.0000 O   0  0
   -0.8054    1.0193    0.0000 O   0  0
    0.6394    1.8212    0.0000 O   0  0
    2.0541    0.9716    0.0000 C   0  0
    2.0678    1.7961    0.0000 O   0  0
    2.8027    3.0206    0.0000 O   0  5
   -0.0545    3.0637    0.0000 O   0  5
    1.3184   -1.0535    0.0000 H   0  0
    1.2997   -3.5224    0.0000 H   0  0
    1.2250   -3.9875    0.0000 O   0  0
    0.4292   -4.2042    0.0000 S   0  0
    1.0147   -4.7850    0.0000 O   0  0
   -3.4917   -7.1625    0.0000 O   0  0
   -3.2750   -6.3667    0.0000 S   0  0
   -4.0725   -6.5769    0.0000 O   0  0
   -4.7375   -6.4417    0.0000 O   0  0
   -4.5208   -5.6458    0.0000 S   0  0
   -5.3184   -5.8561    0.0000 O   0  0
   -1.3042   -9.5042    0.0000 O   0  0
   -2.0167   -9.9208    0.0000 S   0  0
   -1.2996  -10.3295    0.0000 O   0  0
    0.0333   -8.3625    0.0000 O   0  0
    0.0375   -9.1875    0.0000 S   0  0
    0.7499   -8.7714    0.0000 O   0  0
   -0.2833   -6.6333    0.0000 O   0  0
    0.4333   -7.0458    0.0000 S   0  0
    0.4322   -6.2189    0.0000 O   0  0
   -2.5875   -0.2333    0.0000 O   0  0
   -3.3000   -0.6500    0.0000 S   0  0
   -2.5829   -1.0587    0.0000 O   0  0
   -3.5000   -4.3042    0.0000 O   0  0
   -3.2833   -3.5083    0.0000 S   0  0
   -4.0809   -3.7186    0.0000 O   0  0
   -4.4759   -9.3453    0.0000 O   0  0
   -4.4747   -8.5203    0.0000 S   0  0
   -5.1897   -8.9318    0.0000 O   0  0
   -2.0268   -8.4929    0.0000 C   0  0  1  0  0  0
   -1.2018   -8.4872    0.0000 C   0  0  1  0  0  0
   -0.7984   -7.7724    0.0000 C   0  0  1  0  0  0
   -1.2117   -7.0632    0.0000 C   0  0  2  0  0  0
   -2.0367   -7.0689    0.0000 O   0  0
   -2.4484   -7.7838    0.0000 C   0  0  2  0  0  0
   -3.2742   -7.7850    0.0000 C   0  0
   -3.6455   -8.5201    0.0000 O   0  0
   -4.8819   -7.8038    0.0000 O   0  5
   -0.7834   -9.1982    0.0000 O   0  0
    0.0265   -7.7667    0.0000 O   0  0
   -0.8031   -6.3465    0.0000 O   0  0
   -1.2195   -5.6343    0.0000 C   0  0  2  0  0  0
   -0.8070   -4.9213    0.0000 C   0  0  1  0  0  0
   -1.2199   -4.2112    0.0000 C   0  0  2  0  0  0
   -2.0452   -4.2115    0.0000 O   0  0
   -2.4560   -4.9281    0.0000 C   0  0  1  0  0  0
   -2.0414   -5.6444    0.0000 C   0  0  1  0  0  0
   -3.2810   -4.9297    0.0000 C   0  0
   -2.4492   -6.3616    0.0000 O   0  0
    0.0180   -4.9204    0.0000 O   0  0
   -0.8086   -3.4961    0.0000 O   0  0
   -1.2211   -2.7805    0.0000 C   0  0  1  0  0  0
    0.2208   -1.9333    0.0000 O   0  0
    0.4375   -2.7333    0.0000 S   0  0
    1.0220   -2.1457    0.0000 O   0  0
   -1.2363   -1.3562    0.0000 C   0  0  1  0  0  0
   -2.0595   -1.3605    0.0000 O   0  0
   -2.4639   -2.0754    0.0000 C   0  0  1  0  0  0
   -2.0470   -2.7877    0.0000 C   0  0  1  0  0  0
   -0.8121   -2.0610    0.0000 C   0  0  1  0  0  0
   -0.3832   -2.7587    0.0000 O   0  0
    0.8736   -3.4387    0.0000 O   0  5
   -3.2889   -2.0815    0.0000 C   0  0
   -3.7067   -1.3701    0.0000 O   0  0
   -3.7172    0.0588    0.0000 O   0  5
   -2.4542   -3.5052    0.0000 O   0  0
   -3.7000   -2.7917    0.0000 O   0  5
   -3.6920   -5.6451    0.0000 O   0  0
   -4.9310   -4.9331    0.0000 O   0  5
   -2.4323   -9.2114    0.0000 O   0  0
    0.0165   -3.4915    0.0000 O   0  5
    1.2591   -7.0437    0.0000 O   0  5
    0.4601   -9.9023    0.0000 O   0  5
   -2.4182  -10.6403    0.0000 O   0  5
   -0.4125   -1.3542    0.0000 H   0  0
   -0.3958   -4.2083    0.0000 H   0  0
   -1.6292   -6.3458    0.0000 H   0  0
   -3.2792   -5.5417    0.0000 O   0  5
   -2.2341    1.0420    0.0000 O   0  5
   -5.2500   -0.0313    0.0000 Na  0  3
   -5.4687   -0.9687    0.0000 Na  0  3
   -5.6875   -1.9375    0.0000 Na  0  3
   -5.6563   -2.9063    0.0000 Na  0  3
   -5.6563   -3.7500    0.0000 Na  0  3
   -5.7500   -4.7500    0.0000 Na  0  3
    3.2187   -0.1250    0.0000 Na  0  3
    4.1562   -0.2500    0.0000 Na  0  3
    4.8438   -0.2187    0.0000 Na  0  3
    6.0312   -0.2500    0.0000 Na  0  3
    7.1250   -0.2812    0.0000 Na  0  3
    5.1563   -1.3125    0.0000 Na  0  3
    6.6563   -1.3438    0.0000 Na  0  3
 16 14  1  0
 31 32  1  0
 14 15  1  0
 70 69  2  0
 71 70  2  0
 32 33  1  0
 16 17  1  0
 32 34  1  0
 73 72  2  0
 74 73  2  0
  8  9  1  0
 20 35  1  6
 37 36  2  0
 76 75  2  0
 77 76  2  0
 38 37  2  0
  2  1  2  0
 79 78  2  0
 80 79  2  0
  3  2  2  0
 40 39  2  0
 41 40  2  0
 82 81  2  0
 83 82  2  0
  4  5  1  0
 17 18  1  0
 18 19  1  0
 84 85  1  0
 19 20  1  0
 42 21  1  0
 42 43  1  0
 20 16  1  0
  8 12  1  0
  5 21  1  1
 84 89  1  0
 85 86  1  0
 86 87  1  0
 87 88  1  0
 88 89  1  0
  9 10  1  0
 89 90  1  1
  8 22  1  1
 90 91  1  0
 91 82  1  0
 42 47  1  0
 82 92  1  0
 43 44  1  0
 85 93  1  1
 44 45  1  0
 86 94  1  1
 45 46  1  0
 87 95  1  0
 46 47  1  0
 96 95  1  1
 96 97  1  0
 10 11  1  0
 47 48  1  1
 12 23  1  6
 46 49  1  1
 11 13  1  0
 96101  1  0
 97 98  1  0
 98 99  1  0
 99100  1  0
100101  1  0
 45 50  1  6
100102  1  1
 13 24  1  1
101103  1  6
 44 51  1  1
 97104  1  1
 12 13  1  0
 98105  1  0
 51 52  1  0
106105  1  1
108107  2  0
109108  2  0
 52 40  1  0
 17 25  1  6
 40 53  1  0
 50 37  1  0
110111  1  0
  4  7  1  0
 37 54  1  0
 16 26  1  1
 42 55  1  1
110114  1  0
111112  1  0
112113  1  0
113106  1  0
106114  1  0
  5  6  1  0
114115  1  1
115108  1  0
  9 56  1  6
108116  1  0
 58 57  2  0
112117  1  1
 59 58  2  0
117118  1  0
118 76  1  0
 20 27  1  0
 76119  1  0
  6  9  1  0
113120  1  6
120 79  1  0
 27 28  1  0
 79121  1  0
 61 60  2  0
102122  1  0
122 64  1  0
 62 61  2  0
 64123  1  0
  8  7  1  0
 84124  1  6
104 58  1  0
 27 29  1  6
 58125  1  0
 94 73  1  0
 12 15  1  0
 73126  1  0
 93 70  1  0
 64 63  2  0
 70127  1  0
124 67  1  0
 65 64  2  0
 67128  1  0
 28 30  1  0
110129  1  1
 13 17  1  0
 98130  1  1
 30 31  1  0
 87131  1  1
103 61  1  0
 67 66  2  0
 61132  1  0
110 48  1  0
 49  2  1  0
 68 67  2  0
  2133  1  0
M  CHG  8  53  -1  54  -1  92  -1 116  -1 119  -1 121  -1 123  -1 125  -1
M  CHG  8 126  -1 127  -1 128  -1 132  -1 133  -1 134   1 135   1 136   1
M  CHG  8 137   1 138   1 139   1 140   1 141   1 142   1 143   1 144   1
M  CHG  2 145   1 146   1
M  END