
          11280715492D 1   1.00000     0.00000     0

 24 26  0     0  0            999 V2000
    0.8405  -18.9438    0.0000 C   0  0  0  0  0  0           0  0  0
    0.8393  -19.7688    0.0000 O   0  0  0  0  0  0           0  0  0
    1.5555  -18.5323    0.0000 N   0  0  0  0  0  0           0  0  0
    2.2694  -18.9458    0.0000 C   0  0  0  0  0  0           0  0  0
    2.2653  -19.7688    0.0000 C   0  0  0  0  0  0           0  0  0
    2.9783  -20.1823    0.0000 C   0  0  0  0  0  0           0  0  0
    3.6943  -19.7707    0.0000 C   0  0  0  0  0  0           0  0  0
    3.6929  -18.9415    0.0000 C   0  0  0  0  0  0           0  0  0
    2.9793  -18.5317    0.0000 C   0  0  0  0  0  0           0  0  0
   -2.0125  -16.4708    0.0000 C   0  0  3  0  0  0           0  0  0
   -2.0125  -17.2958    0.0000 C   0  0  0  0  0  0           0  0  0
   -1.3005  -17.7042    0.0000 C   0  0  0  0  0  0           0  0  0
   -0.5885  -17.2958    0.0000 N   0  0  3  0  0  0           0  0  0
   -0.5885  -16.4708    0.0000 C   0  0  0  0  0  0           0  0  0
   -1.3005  -16.0542    0.0000 C   0  0  0  0  0  0           0  0  0
   -2.7282  -16.0604    0.0000 C   0  0  0  0  0  0           0  0  0
   -3.4414  -16.4750    0.0000 C   0  0  0  0  0  0           0  0  0
   -4.1958  -16.1418    0.0000 C   0  0  0  0  0  0           0  0  0
   -4.7461  -16.7565    0.0000 N   0  0  0  0  0  0           0  0  0
   -4.3314  -17.4698    0.0000 C   0  0  0  0  0  0           0  0  0
   -3.5250  -17.2958    0.0000 N   0  0  0  0  0  0           0  0  0
    0.1254  -17.7094    0.0000 C   0  0  0  0  0  0           0  0  0
    0.1242  -18.5344    0.0000 C   0  0  0  0  0  0           0  0  0
    4.4065  -18.5275    0.0000 F   0  0  0  0  0  0           0  0  0
  6  7  1  0     0  0
  3  4  1  0     0  0
 10 15  1  0     0  0
 11 12  1  0     0  0
 12 13  1  0     0  0
 13 14  1  0     0  0
 14 15  1  0     0  0
  7  8  2  0     0  0
 10 16  1  0     0  0
 16 17  1  0     0  0
 17 18  2  0     0  0
  8  9  1  0     0  0
  9  4  2  0     0  0
 10 11  1  0     0  0
  4  5  1  0     0  0
 18 19  1  0     0  0
 19 20  1  0     0  0
 20 21  2  0     0  0
 21 17  1  0     0  0
  1  3  1  0     0  0
 13 22  1  0     0  0
  5  6  2  0     0  0
 22 23  1  0     0  0
 23  1  1  0     0  0
  1  2  2  0     0  0
  8 24  1  0     0  0
M  END