
  SciTegic10301317112D

 38 39  0  0  0  0            999 V2000
   -2.4708    0.9250    0.0000 S   0  0
    0.8250    0.9375    0.0000 C   0  0
    7.5625   -3.1417    0.0000 C   0  0  1  0  0  0
    8.3875   -3.1667    0.0000 C   0  0
    7.1667   -2.4167    0.0000 N   0  0
   -1.6458    0.9333    0.0000 C   0  0
    6.3417   -2.4292    0.0000 C   0  0
    1.2417    0.2250    0.0000 N   0  0
   -2.4708    0.1083    0.0000 O   0  0
   -2.4708    1.7500    0.0000 O   0  0
    2.4792   -0.4792    0.0000 C   0  0
    4.6167   -1.0542    0.0000 C   0  0
    0.0000    0.9375    0.0000 C   0  0
   -3.2958    0.9333    0.0000 N   0  0
    5.1000   -1.7167    0.0000 N   0  0
    3.3042   -0.4750    0.0000 N   0  0
    7.1292   -3.8500    0.0000 C   0  0
    1.2292    1.6583    0.0000 O   0  0
    8.8167   -2.4667    0.0000 O   0  0
    5.9375   -3.1417    0.0000 O   0  0
    2.0667   -1.1917    0.0000 O   0  0
    4.9500   -0.3000    0.0000 O   0  0
   -1.2458    1.6458    0.0000 C   0  0
   -1.2333    0.2208    0.0000 C   0  0
   -0.4083    0.2208    0.0000 C   0  0
   -0.4208    1.6500    0.0000 C   0  0
    2.0667    0.2333    0.0000 C   0  0
    5.9250   -1.7167    0.0000 C   0  0
    3.7917   -1.1417    0.0000 C   0  0
    7.5167   -4.5750    0.0000 C   0  0
    8.7792   -3.8917    0.0000 O   0  0
    8.3042   -6.0167    0.0000 C   0  0
    8.3417   -4.5917    0.0000 C   0  0
    7.0917   -5.2667    0.0000 C   0  0
    7.4792   -5.9917    0.0000 C   0  0
    8.7417   -5.3167    0.0000 C   0  0
    8.7000   -6.7417    0.0000 O   0  0
    9.5250   -6.7667    0.0000 C   0  0
  2 13  1  0
  3  5  1  0
  4  3  1  0
  5  7  1  0
  6  1  1  0
  7 28  1  0
  8  2  1  0
  9  1  2  0
 10  1  2  0
 11 27  1  0
 12 29  1  0
 13 25  2  0
 14  1  1  0
 15 12  1  0
 16 11  1  0
  3 17  1  6
 18  2  2  0
 19  4  2  0
 20  7  2  0
 21 11  2  0
 22 12  2  0
 23  6  1  0
 24  6  2  0
 25 24  1  0
 26 23  2  0
 27  8  1  0
 28 15  1  0
 29 16  1  0
 30 17  1  0
 31  4  1  0
 32 35  1  0
 33 30  2  0
 34 30  1  0
 35 34  2  0
 36 33  1  0
 37 32  1  0
 38 37  1  0
 13 26  1  0
 32 36  2  0
M  END