
          11280715462D 1   1.00000     0.00000     0

 49 53  0     1  0            999 V2000
    0.2000    0.9208    0.0000 S   0  0  3  0  0  0           0  0  0
   -0.6000    0.7375    0.0000 N   0  0  3  0  0  0           0  0  0
    0.8500    0.4083    0.0000 N   0  0  3  0  0  0           0  0  0
   -0.9625   -0.0125    0.0000 C   0  0  1  0  0  0           0  0  0
    0.8542   -0.4125    0.0000 C   0  0  1  0  0  0           0  0  0
    0.2125   -0.9250    0.0000 C   0  0  1  0  0  0           0  0  0
   -0.6000   -0.7542    0.0000 C   0  0  1  0  0  0           0  0  0
    0.9167    1.3375    0.0000 O   0  0  0  0  0  0           0  0  0
   -0.2125    1.6375    0.0000 O   0  0  0  0  0  0           0  0  0
   -1.7833   -0.0167    0.0000 C   0  0  0  0  0  0           0  0  0
    1.6000   -0.7625    0.0000 C   0  0  0  0  0  0           0  0  0
    1.5917    0.7750    0.0000 C   0  0  0  0  0  0           0  0  0
   -1.1125    1.3833    0.0000 C   0  0  0  0  0  0           0  0  0
   -3.2625    1.7833    0.0000 C   0  0  0  0  0  0           0  0  0
    3.6917    0.2208    0.0000 C   0  0  0  0  0  0           0  0  0
    3.0125    0.6750    0.0000 C   0  0  0  0  0  0           0  0  0
   -2.4458    1.9083    0.0000 C   0  0  0  0  0  0           0  0  0
    2.2750    0.3083    0.0000 C   0  0  0  0  0  0           0  0  0
   -1.9333    1.2625    0.0000 C   0  0  0  0  0  0           0  0  0
   -2.1875   -0.7375    0.0000 O   0  0  0  0  0  0           0  0  0
    1.6667   -1.5792    0.0000 O   0  0  0  0  0  0           0  0  0
   -1.1000   -1.4000    0.0000 O   0  0  0  0  0  0           0  0  0
    0.4000   -1.7375    0.0000 O   0  0  0  0  0  0           0  0  0
   -3.7750    2.4375    0.0000 C   0  0  3  0  0  0           0  0  0
    4.4375    0.5833    0.0000 C   0  0  3  0  0  0           0  0  0
   -4.5958    2.3000    0.0000 N   0  0  0  0  0  0           0  0  0
    5.1250    0.1208    0.0000 N   0  0  0  0  0  0           0  0  0
   -3.0125   -0.7375    0.0000 C   0  0  0  0  0  0           0  0  0
    2.4167   -1.9375    0.0000 C   0  0  0  0  0  0           0  0  0
   -5.1083    2.9458    0.0000 O   0  0  0  0  0  0           0  0  0
    5.8542    0.4875    0.0000 O   0  0  0  0  0  0           0  0  0
   -3.5625    1.0208    0.0000 C   0  0  0  0  0  0           0  0  0
    3.6375   -0.6125    0.0000 C   0  0  0  0  0  0           0  0  0
   -3.0458    0.3750    0.0000 C   0  0  0  0  0  0           0  0  0
    2.9000   -0.9792    0.0000 C   0  0  0  0  0  0           0  0  0
    2.2167   -0.5167    0.0000 C   0  0  0  0  0  0           0  0  0
   -2.2250    0.5000    0.0000 C   0  0  0  0  0  0           0  0  0
    4.4917    1.4083    0.0000 C   0  0  0  0  0  0           0  0  0
   -3.4750    3.1875    0.0000 C   0  0  0  0  0  0           0  0  0
    2.4792   -2.7542    0.0000 C   0  0  0  0  0  0           0  0  0
    3.0917   -1.4625    0.0000 C   0  0  0  0  0  0           0  0  0
   -3.4208   -1.4542    0.0000 C   0  0  0  0  0  0           0  0  0
   -3.4333   -0.0250    0.0000 C   0  0  0  0  0  0           0  0  0
    3.8375   -1.8167    0.0000 C   0  0  0  0  0  0           0  0  0
   -4.2458   -1.4625    0.0000 C   0  0  0  0  0  0           0  0  0
   -4.2500   -0.0250    0.0000 C   0  0  0  0  0  0           0  0  0
    3.2292   -3.1167    0.0000 C   0  0  0  0  0  0           0  0  0
    3.9000   -2.6375    0.0000 C   0  0  0  0  0  0           0  0  0
   -4.6625   -0.7417    0.0000 C   0  0  0  0  0  0           0  0  0
  2  1  1  0     0  0
  3  1  1  0     0  0
  4  2  1  0     0  0
  5  3  1  0     0  0
  6  5  1  0     0  0
  7  4  1  0     0  0
  8  1  2  0     0  0
  9  1  2  0     0  0
  4 10  1  1     0  0
  5 11  1  6     0  0
 12  3  1  0     0  0
 13  2  1  0     0  0
 14 17  1  0     0  0
 15 16  2  0     0  0
 16 18  1  0     0  0
 17 19  2  0     0  0
 18 12  1  0     0  0
 19 13  1  0     0  0
 20 10  1  0     0  0
 21 11  1  0     0  0
  7 22  1  1     0  0
  6 23  1  6     0  0
 24 14  1  0     0  0
 25 15  1  0     0  0
 26 24  1  0     0  0
 27 25  1  0     0  0
 28 20  1  0     0  0
 29 21  1  0     0  0
 30 26  1  0     0  0
 31 27  1  0     0  0
 32 34  1  0     0  0
 33 35  2  0     0  0
 34 37  2  0     0  0
 35 36  1  0     0  0
 36 18  2  0     0  0
 37 19  1  0     0  0
 38 25  1  0     0  0
 39 24  1  0     0  0
 40 29  2  0     0  0
 41 29  1  0     0  0
 42 28  1  0     0  0
 43 28  2  0     0  0
 44 41  2  0     0  0
 45 42  2  0     0  0
 46 43  1  0     0  0
 47 40  1  0     0  0
 48 44  1  0     0  0
 49 46  2  0     0  0
  7  6  1  0     0  0
 15 33  1  0     0  0
 14 32  2  0     0  0
 47 48  2  0     0  0
 45 49  1  0     0  0
M  END