
  SciTegic02181312462D

 38 42  0  0  0  0            999 V2000
   13.5870   -6.1535    0.0000 C   0  0
   13.5870   -5.3285    0.0000 C   0  0
   14.3015   -4.9160    0.0000 C   0  0
   15.0160   -5.3285    0.0000 C   0  0
   15.0160   -6.1535    0.0000 C   0  0
   14.3015   -6.5660    0.0000 N   0  0
   12.8726   -6.5660    0.0000 C   0  0
   12.8726   -7.3910    0.0000 O   0  0
   12.1581   -6.1535    0.0000 N   0  0
   15.7305   -4.9160    0.0000 O   0  0
   17.8739   -6.1535    0.0000 N   0  0
   17.8739   -5.3285    0.0000 C   0  0
   17.1594   -4.9160    0.0000 C   0  0
   16.4449   -5.3285    0.0000 C   0  0
   16.4449   -6.1535    0.0000 C   0  0
   17.1594   -6.5660    0.0000 C   0  0
   18.5883   -6.5660    0.0000 C   0  0
   19.0008   -7.2805    0.0000 C   0  0
   19.4133   -6.5660    0.0000 C   0  0
   11.4436   -6.5660    0.0000 C   0  0
   10.7292   -6.1535    0.0000 C   0  0
   10.0147   -6.5660    0.0000 C   0  0
   10.0147   -7.3910    0.0000 C   0  0
   10.7292   -7.8035    0.0000 C   0  0
   11.4436   -7.3910    0.0000 C   0  0
    9.3002   -7.8035    0.0000 N   0  0
    8.5857   -7.3910    0.0000 C   0  0
    8.5857   -6.5660    0.0000 O   0  0
    7.8713   -7.8035    0.0000 N   0  0
    5.8511   -7.1135    0.0000 O   0  0
    6.4031   -7.7266    0.0000 N   0  0
    7.1568   -7.3910    0.0000 C   0  0
    7.0706   -6.5706    0.0000 C   0  0
    6.2636   -6.3990    0.0000 C   0  0
    5.9280   -5.6454    0.0000 C   0  0
    6.5114   -5.0620    0.0000 C   0  0
    5.5925   -4.8917    0.0000 C   0  0
    5.1030   -5.6454    0.0000 C   0  0
  1  2  1  0
  2  3  2  0
  3  4  1  0
  4  5  2  0
  5  6  1  0
  1  6  2  0
  1  7  1  0
  7  8  2  0
  7  9  1  0
 11 12  1  0
 12 13  1  0
 13 14  1  0
 14 15  1  0
 15 16  1  0
 11 16  1  0
 10 14  1  0
 17 18  1  0
 18 19  1  0
 17 19  1  0
 11 17  1  0
  4 10  1  0
 20 21  1  0
 21 22  2  0
 22 23  1  0
 23 24  2  0
 24 25  1  0
 20 25  2  0
 26 27  1  0
 27 28  2  0
 27 29  1  0
 30 31  1  0
 31 32  2  0
 32 33  1  0
 33 34  2  0
 30 34  1  0
 35 36  1  0
 35 38  1  0
 35 37  1  0
 34 35  1  0
 29 32  1  0
 23 26  1  0
  9 20  1  0
M  END