
  SciTegic03291108582D

 28 31  0  0  0  0            999 V2000
   -3.6944    0.2616    0.0000 S   0  0
   -4.1069   -0.4529    0.0000 O   0  0
   -3.2819    0.9760    0.0000 O   0  0
   -7.9324    1.0866    0.0000 O   0  0
    2.0213   -2.2134    0.0000 O   0  0
   -2.9800   -0.1509    0.0000 N   0  0
   -1.5510   -0.9759    0.0000 N   0  0
   -6.6225    1.7540    0.0000 N   0  0
   -4.4089    0.6741    0.0000 C   0  0
   -5.8378    0.6741    0.0000 C   0  0
   -5.8378    1.4991    0.0000 C   0  0
   -5.1234    0.2616    0.0000 C   0  0
   -4.4089    1.4991    0.0000 C   0  0
   -5.1234    1.9116    0.0000 C   0  0
   -2.2655    0.2616    0.0000 C   0  0
   -2.9800   -0.9759    0.0000 C   0  0
   -6.6225    0.4191    0.0000 C   0  0
   -7.1074    1.0866    0.0000 C   0  0
   -1.5510   -0.1509    0.0000 C   0  0
   -2.2655   -1.3884    0.0000 C   0  0
   -0.8365   -1.3884    0.0000 C   0  0
   -0.1221   -0.9759    0.0000 C   0  0
   -0.8365   -2.2134    0.0000 C   0  0
    0.5924   -2.2134    0.0000 C   0  0
    0.5924   -1.3884    0.0000 C   0  0
   -0.1221   -2.6259    0.0000 C   0  0
    1.3069   -2.6259    0.0000 C   0  0
    1.3069   -3.4509    0.0000 C   0  0
  1  2  2  0
  1  3  2  0
  1  6  1  0
  1  9  1  0
  4 18  2  0
  5 27  2  0
  6 15  1  0
  6 16  1  0
  7 19  1  0
  7 20  1  0
  7 21  1  0
  8 11  1  0
  8 18  1  0
  9 12  1  0
  9 13  2  0
 10 11  1  0
 10 12  2  0
 10 17  1  0
 11 14  2  0
 13 14  1  0
 15 19  1  0
 16 20  1  0
 17 18  1  0
 21 22  2  0
 21 23  1  0
 22 25  1  0
 23 26  2  0
 24 25  2  0
 24 26  1  0
 24 27  1  0
 27 28  1  0
M  END