
          11280715472D 1   1.00000     0.00000     0

 26 28  0     0  0            999 V2000
    5.9542   -1.6625    0.0000 N   0  0  3  0  0  0           0  0  0
    5.2500   -2.0750    0.0000 C   0  0  0  0  0  0           0  0  0
   10.2667   -0.7667    0.0000 C   0  0  0  0  0  0           0  0  0
   10.9667   -0.3417    0.0000 C   0  0  0  0  0  0           0  0  0
    4.5292   -1.6667    0.0000 C   0  0  0  0  0  0           0  0  0
    7.3917   -0.8167    0.0000 N   0  0  3  0  0  0           0  0  0
    5.2542   -2.9000    0.0000 C   0  0  0  0  0  0           0  0  0
    5.9542   -0.8167    0.0000 C   0  0  0  0  0  0           0  0  0
    6.6667   -2.0542    0.0000 C   0  0  0  0  0  0           0  0  0
   10.2792   -1.5917    0.0000 O   0  0  0  0  0  0           0  0  0
   12.3875   -0.3250    0.0000 N   0  0  0  0  0  0           0  0  0
    9.5417   -0.3625    0.0000 N   0  0  0  0  0  0           0  0  0
    4.5417   -3.3250    0.0000 C   0  0  0  0  0  0           0  0  0
    3.8125   -2.0792    0.0000 C   0  0  0  0  0  0           0  0  0
    6.6667   -0.4042    0.0000 C   0  0  0  0  0  0           0  0  0
    7.3917   -1.6625    0.0000 C   0  0  0  0  0  0           0  0  0
   11.6875   -0.7417    0.0000 C   0  0  0  0  0  0           0  0  0
    3.8167   -2.9125    0.0000 C   0  0  0  0  0  0           0  0  0
    3.0917   -1.6667    0.0000 Cl  0  0  0  0  0  0           0  0  0
    5.9667   -3.3042    0.0000 O   0  0  0  0  0  0           0  0  0
    8.8292   -0.7917    0.0000 C   0  0  0  0  0  0           0  0  0
    8.1167   -0.3917    0.0000 C   0  0  0  0  0  0           0  0  0
   10.9542    0.4708    0.0000 C   0  0  0  0  0  0           0  0  0
   12.3750    0.4958    0.0000 C   0  0  0  0  0  0           0  0  0
    5.9792   -4.1292    0.0000 C   0  0  0  0  0  0           0  0  0
   11.6542    0.8958    0.0000 C   0  0  0  0  0  0           0  0  0
  2  1  1  0     0  0
  3 12  1  0     0  0
  4  3  1  0     0  0
  5  2  2  0     0  0
  6 16  1  0     0  0
  7  2  1  0     0  0
  8  1  1  0     0  0
  9  1  1  0     0  0
 10  3  2  0     0  0
 11 17  1  0     0  0
 12 21  1  0     0  0
 13  7  2  0     0  0
 14  5  1  0     0  0
 15  8  1  0     0  0
 16  9  1  0     0  0
 17  4  2  0     0  0
 18 13  1  0     0  0
 19 14  1  0     0  0
 20  7  1  0     0  0
 21 22  1  0     0  0
 22  6  1  0     0  0
 23  4  1  0     0  0
 24 26  1  0     0  0
 25 20  1  0     0  0
 26 23  2  0     0  0
 15  6  1  0     0  0
 18 14  2  0     0  0
 24 11  2  0     0  0
M  END