
  CDK    9/16/09,9:48

 37 39  0  0  0  0  0  0  0  0999 V2000
   -0.1674   -1.6503    0.0000 C   0  0  0  0  0  0  0  0  0  0  0  0
   -0.1783   -0.0089    0.0000 C   0  0  0  0  0  0  0  0  0  0  0  0
   -0.8885   -0.4291    0.0000 C   0  0  0  0  0  0  0  0  0  0  0  0
   -0.8792   -1.2479    0.0000 C   0  0  0  0  0  0  0  0  0  0  0  0
    0.5363   -0.4148    0.0000 C   0  0  0  0  0  0  0  0  0  0  0  0
    0.5454   -1.2375    0.0000 C   0  0  0  0  0  0  0  0  0  0  0  0
    1.2585   -1.6387    0.0000 C   0  0  0  0  0  0  0  0  0  0  0  0
    1.9670   -1.2217    0.0000 C   0  0  0  0  0  0  0  0  0  0  0  0
    1.9578   -0.3990    0.0000 C   0  0  0  0  0  0  0  0  0  0  0  0
    1.2401    0.0066    0.0000 N   0  0  0  0  0  0  0  0  0  0  0  0
    1.2298    0.8317    0.0000 C   0  0  0  0  0  0  0  0  0  0  0  0
    1.9390    1.2531    0.0000 O   0  0  0  0  0  0  0  0  0  0  0  0
    0.5101    1.2352    0.0000 C   0  0  0  0  0  0  0  0  0  0  0  0
    2.6682    0.0208    0.0000 C   0  0  0  0  0  0  0  0  0  0  0  0
    3.3869   -0.3845    0.0000 C   0  0  0  0  0  0  0  0  0  0  0  0
    2.6855   -1.6271    0.0000 O   0  0  0  0  0  0  0  0  0  0  0  0
    3.3952   -1.2094    0.0000 O   0  0  0  0  0  0  0  0  0  0  0  0
    4.0971    0.0353    0.0000 O   0  0  0  0  0  0  0  0  0  0  0  0
    1.2666   -2.4637    0.0000 N   0  0  0  0  0  0  0  0  0  0  0  0
    0.5562   -2.8832    0.0000 C   0  0  0  0  0  0  0  0  0  0  0  0
   -0.1624   -2.4777    0.0000 O   0  0  0  0  0  0  0  0  0  0  0  0
    0.5642   -3.7083    0.0000 O   0  0  0  0  0  0  0  0  0  0  0  0
   -1.5895   -1.6679    0.0000 O   0  0  0  0  0  0  0  0  0  0  0  0
   -2.3082   -1.2627    0.0000 C   0  0  0  0  0  0  0  0  0  0  0  0
   -3.0184   -1.6825    0.0000 O   0  0  0  0  0  0  0  0  0  0  0  0
   -3.7372   -1.2773    0.0000 C   0  0  0  0  0  0  0  0  0  0  0  0
   -4.4475   -1.6972    0.0000 C   0  0  0  0  0  0  0  0  0  0  0  0
   -5.1661   -1.2919    0.0000 O   0  0  0  0  0  0  0  0  0  0  0  0
   -5.8765   -1.7119    0.0000 C   0  0  0  0  0  0  0  0  0  0  0  0
    0.5037    2.0590    0.0000 C   0  0  0  0  0  0  0  0  0  0  0  0
   -0.2151    2.4626    0.0000 C   0  0  0  0  0  0  0  0  0  0  0  0
   -0.9254    2.0410    0.0000 C   0  0  0  0  0  0  0  0  0  0  0  0
   -0.9123    1.2118    0.0000 C   0  0  0  0  0  0  0  0  0  0  0  0
   -0.1930    0.8120    0.0000 C   0  0  0  0  0  0  0  0  0  0  0  0
   -0.1462   -4.1278    0.0000 C   0  0  0  0  0  0  0  0  0  0  0  0
   -0.1381   -4.9528    0.0000 C   0  0  0  0  0  0  0  0  0  0  0  0
   -0.8486   -5.3723    0.0000 C   0  0  0  0  0  0  0  0  0  0  0  0
 15 18  1  0  0  0  0 
  6  7  1  0  0  0  0 
  7 19  1  1  0  0  0 
  7  8  1  0  0  0  0 
 19 20  1  0  0  0  0 
  8  9  1  0  0  0  0 
 20 21  2  0  0  0  0 
  9 10  1  0  0  0  0 
 20 22  1  0  0  0  0 
  5  6  1  0  0  0  0 
  4 23  1  0  0  0  0 
 10 11  1  0  0  0  0 
 23 24  1  0  0  0  0 
  5  2  2  0  0  0  0 
 24 25  1  0  0  0  0 
 11 12  2  0  0  0  0 
 25 26  1  0  0  0  0 
  1  6  2  0  0  0  0 
 26 27  1  0  0  0  0 
 11 13  1  0  0  0  0 
 27 28  1  0  0  0  0 
  2  3  1  0  0  0  0 
 28 29  1  0  0  0  0 
  9 14  1  1  0  0  0 
 13 30  2  0  0  0  0 
 30 31  1  0  0  0  0 
 14 15  1  0  0  0  0 
 31 32  2  0  0  0  0 
  3  4  2  0  0  0  0 
 32 33  1  0  0  0  0 
  8 16  1  6  0  0  0 
 33 34  2  0  0  0  0 
 34 13  1  0  0  0  0 
  4  1  1  0  0  0  0 
 22 35  1  0  0  0  0 
 15 17  2  0  0  0  0 
 35 36  1  0  0  0  0 
  5 10  1  0  0  0  0 
 36 37  2  0  0  0  0 
M  END