
  SciTegic11021510542D

 18 17  0  0  0  0            999 V2000
   -4.7249   -0.1604    0.0000 C   0  0
   -5.4394    0.2521    0.0000 O   0  0
   -4.7249   -0.9854    0.0000 O   0  0
   -4.0104    0.2521    0.0000 C   0  0
   -3.2960   -0.1604    0.0000 C   0  0
   -2.5815    0.2521    0.0000 C   0  0
   -1.8670   -0.1604    0.0000 C   0  0
   -1.1526    0.2521    0.0000 C   0  0
   -0.4381   -0.1604    0.0000 C   0  0
    0.2764    0.2521    0.0000 C   0  0
    0.9909   -0.1604    0.0000 C   0  0
    1.7053    0.2521    0.0000 C   0  0
    2.4198   -0.1604    0.0000 C   0  0
    3.1343    0.2521    0.0000 C   0  0
    3.8487   -0.1604    0.0000 C   0  0
    4.5632    0.2521    0.0000 C   0  0
    5.2777   -0.1604    0.0000 C   0  0
    5.9922    0.2521    0.0000 C   0  0
  1  2  1  0
  1  3  2  0
  1  4  1  0
  4  5  1  0
  5  6  1  0
  6  7  1  0
  7  8  1  0
  8  9  1  0
  9 10  1  0
 10 11  1  0
 11 12  1  0
 12 13  1  0
 13 14  1  0
 14 15  1  0
 15 16  1  0
 16 17  1  0
 17 18  1  0
M  END