
  SciTegic02011314062D

 31 34  0  0  1  0            999 V2000
    1.7917   -6.7917    0.0000 O   0  0
    1.7917   -8.4542    0.0000 O   0  0
    2.5042   -7.2125    0.0000 C   0  0  2  0  0  0
    2.5042   -8.0417    0.0000 C   0  0  1  0  0  0
    1.0792   -7.2125    0.0000 C   0  0
    6.8000   -8.0542    0.0000 C   0  0
    1.0792   -8.0375    0.0000 C   0  0
    7.5042   -8.4667    0.0000 C   0  0
    6.7917   -7.2292    0.0000 C   0  0
    3.2292   -6.8042    0.0000 C   0  0
    6.0792   -8.4625    0.0000 O   0  0
    3.2250   -8.4542    0.0000 C   0  0
    3.9417   -8.0417    0.0000 N   0  0
    7.5042   -9.2917    0.0000 O   0  0
    6.0792   -6.8167    0.0000 O   0  0
    8.2292   -7.2375    0.0000 C   0  0
    0.3667   -6.8000    0.0000 C   0  0
    0.3667   -8.4542    0.0000 C   0  0
    7.5042   -6.8167    0.0000 C   0  0
    8.2250   -8.0625    0.0000 C   0  0
    3.2292   -5.9792    0.0000 C   0  0
    3.9417   -7.2167    0.0000 C   0  0
    4.6542   -8.4542    0.0000 C   0  0
    5.3667   -8.0500    0.0000 C   0  0
    6.0792   -5.9917    0.0000 C   0  0
    8.2167   -9.7125    0.0000 C   0  0
   -0.3458   -7.2125    0.0000 C   0  0
   -0.3458   -8.0417    0.0000 C   0  0
    4.6542   -6.8125    0.0000 C   0  0
    3.9417   -5.5667    0.0000 C   0  0
    4.6542   -5.9792    0.0000 C   0  0
  2  7  1  0
  3  1  1  0
  4  3  1  0
  5  1  1  0
  6 11  1  0
  7  5  1  0
  8  6  2  0
  9  6  1  0
  3 10  1  1
 11 24  1  0
  4 12  1  1
 13 12  1  0
 14  8  1  0
 15  9  1  0
 16 19  1  0
 17  5  2  0
 18  7  2  0
 19  9  2  0
 20  8  1  0
 21 10  1  0
 22 10  2  0
 23 13  1  0
 24 23  1  0
 25 15  1  0
 26 14  1  0
 27 17  1  0
 28 27  2  0
 29 22  1  0
 30 21  2  0
 31 29  2  0
  2  4  1  0
 28 18  1  0
 30 31  1  0
 16 20  2  0
M  END