
  SciTegic02271514512D

 30 33  0  0  0  0            999 V2000
    9.4300   -5.6434    0.0000 N   0  0
    7.6089   -6.8102    0.0000 C   0  0
    8.4037   -6.6188    0.0000 N   0  0
    8.6353   -5.8348    0.0000 C   0  0
    8.0722   -5.2422    0.0000 C   0  0
    7.2774   -5.4336    0.0000 C   0  0
    7.0458   -6.2176    0.0000 N   0  0
    8.3038   -4.4582    0.0000 F   0  0
    6.6289   -8.6847    0.0000 C   0  0
    6.6069   -7.8676    0.0000 C   0  0
    5.8882   -7.4780    0.0000 C   0  0
    5.1915   -7.9056    0.0000 C   0  0
    5.2135   -8.7228    0.0000 C   0  0
    5.9322   -9.1124    0.0000 N   0  0
    7.4129   -8.9164    0.0000 N   0  0
    7.3773   -7.5941    0.0000 C   0  0
    7.8754   -8.2423    0.0000 C   0  0
    4.4728   -7.5161    0.0000 Cl  0  0
    9.9930   -6.2357    0.0000 C   0  0  1  0  0  0
    9.7594   -7.0157    0.0000 C   0  0
   10.3185   -7.6068    0.0000 C   0  0
   11.1143   -7.4195    0.0000 C   0  0
   11.3480   -6.6354    0.0000 N   0  0
   10.7859   -6.0387    0.0000 C   0  0
   12.1431   -6.4468    0.0000 C   0  0
   12.7040   -7.0411    0.0000 C   0  0
   12.3773   -5.6639    0.0000 O   0  0
   13.4991   -6.8525    0.0000 C   0  0
   14.0601   -7.4467    0.0000 O   0  0
   14.8552   -7.2581    0.0000 C   0  0
  2  3  1  0
  3  4  2  0
  4  5  1  0
  5  6  2  0
  6  7  1  0
  2  7  2  0
  5  8  1  0
  9 10  1  0
 10 11  2  0
 11 12  1  0
 12 13  2  0
 13 14  1  0
  9 14  2  0
 16 17  2  0
 15 17  1  0
  9 15  1  0
 10 16  1  0
 12 18  1  0
  2 16  1  0
  1  4  1  0
 19  1  1  6
 19 20  1  0
 19 24  1  0
 20 21  1  0
 21 22  1  0
 22 23  1  0
 23 24  1  0
 23 25  1  0
 25 26  1  0
 25 27  2  0
 26 28  1  0
 28 29  1  0
 29 30  1  0
M  END