
  SciTegic08011210012D

 30 32  0  0  0  0            999 V2000
    2.7194   -5.0041    0.0000 C   0  0
    2.7182   -5.8315    0.0000 C   0  0
    3.4331   -6.2444    0.0000 C   0  0
    3.4313   -4.5914    0.0000 C   0  0
    4.1466   -5.0005    0.0000 C   0  0
    4.1469   -5.8315    0.0000 C   0  0
    4.9374   -6.0881    0.0000 S   0  0
    5.4257   -5.4156    0.0000 C   0  0
    4.9369   -4.7435    0.0000 N   0  0
    6.2507   -5.4153    0.0000 N   0  0
    6.6629   -4.7007    0.0000 N   0  0
    7.4879   -4.7004    0.0000 C   0  0
    7.8982   -5.4169    0.0000 C   0  0
    8.7225   -5.4170    0.0000 C   0  0
    9.1355   -4.7018    0.0000 C   0  0
    8.7184   -3.9851    0.0000 C   0  0
    7.8955   -3.9886    0.0000 C   0  0
    9.9605   -4.7005    0.0000 N   0  0
   10.3742   -5.4142    0.0000 C   0  0
   10.3718   -3.9853    0.0000 C   0  0
    2.0034   -6.2434    0.0000 O   0  0
    1.2893   -5.8304    0.0000 C   0  0
    0.5745   -6.2423    0.0000 C   0  0
   -0.1396   -5.8292    0.0000 O   0  0
   -0.8544   -6.2412    0.0000 C   0  0
   -1.5686   -5.8281    0.0000 C   0  0
   -2.2834   -6.2400    0.0000 O   0  0
   -2.9975   -5.8270    0.0000 C   0  0
   -3.7123   -6.2389    0.0000 C   0  0
   -4.4265   -5.8258    0.0000 F   0  0
  1  2  2  0
 14 15  2  0
  5  4  2  0
 15 16  1  0
  6  7  1  0
 16 17  2  0
 17 12  1  0
  7  8  1  0
 15 18  1  0
  8  9  2  0
 18 19  1  0
  9  5  1  0
 18 20  1  0
  4  1  1  0
  2 21  1  0
  8 10  1  0
 21 22  1  0
  5  6  1  0
 22 23  1  0
 10 11  2  0
 23 24  1  0
 24 25  1  0
 11 12  1  0
 25 26  1  0
  2  3  1  0
 26 27  1  0
 12 13  2  0
 27 28  1  0
  3  6  2  0
 28 29  1  0
 13 14  1  0
 29 30  1  0
M  ISO  1  30  18
M  END