
  SciTegic01161211252D

 24 25  0  0  0  0            999 V2000
    9.3540  -29.6807    0.0000 C   0  0
    9.3540  -30.5080    0.0000 C   0  0
   10.0665  -30.9194    0.0000 C   0  0
   10.7836  -30.5080    0.0000 C   0  0
    7.2172  -28.4390    0.0000 C   0  0
    7.2172  -29.2664    0.0000 C   0  0
    7.9297  -29.6777    0.0000 C   0  0
    7.9297  -28.0231    0.0000 C   0  0
    8.6468  -28.4390    0.0000 C   0  0
    8.6433  -29.2664    0.0000 C   0  0
    9.3610  -28.0261    0.0000 C   0  0
   10.0764  -28.4451    0.0000 O   0  0
   11.5032  -28.4571    0.0000 C   0  0
   10.7910  -28.0360    0.0000 C   0  0  2  0  0  0
   11.4963  -29.2829    0.0000 C   0  0
   11.4685  -30.9288    0.0000 C   0  0  2  0  0  0
   12.1890  -30.5280    0.0000 C   0  0  2  0  0  0
   12.2037  -29.7020    0.0000 C   0  0
    6.5046  -29.6777    0.0000 O   0  0
    7.9285  -27.2003    0.0000 O   0  0
    9.3633  -27.2034    0.0000 O   0  0
   10.7969  -27.2133    0.0000 C   0  0
   11.4506  -31.7515    0.0000 O   0  0
   12.8945  -30.9513    0.0000 O   0  0
  2  3  1  0
  3  4  1  0
  5  8  1  0
 12 14  1  0
 15 13  1  0
 13 14  1  0
  6  7  1  0
  7 10  2  0
  9  8  2  0
  9 10  1  0
 15 18  2  0
  4 16  1  0
 16 17  1  0
 17 18  1  0
  5  6  2  0
  6 19  1  0
  8 20  1  0
  1  2  2  0
 11 21  2  0
  9 11  1  0
 14 22  1  1
 10  1  1  0
 16 23  1  1
 12 11  1  0
 17 24  1  1
M  END