
  CDK    9/16/09,9:42

 18 19  0  0  0  0  0  0  0  0999 V2000
    6.2444  -20.8041    0.0000 C   0  0  0  0  0  0  0  0  0  0  0  0
    6.2432  -21.6315    0.0000 C   0  0  0  0  0  0  0  0  0  0  0  0
    6.9581  -22.0444    0.0000 C   0  0  0  0  0  0  0  0  0  0  0  0
    7.6745  -21.6310    0.0000 C   0  0  0  0  0  0  0  0  0  0  0  0
    7.6716  -20.8005    0.0000 C   0  0  0  0  0  0  0  0  0  0  0  0
    6.9563  -20.3914    0.0000 C   0  0  0  0  0  0  0  0  0  0  0  0
    6.9538  -19.5664    0.0000 N   0  0  0  0  0  0  0  0  0  0  0  0
    7.6670  -19.1517    0.0000 S   0  0  0  0  0  0  0  0  0  0  0  0
    8.3792  -18.7333    0.0000 C   0  0  0  0  0  0  0  0  0  0  0  0
    8.0833  -19.8640    0.0000 O   0  0  0  0  0  0  0  0  0  0  0  0
    7.2499  -18.4399    0.0000 O   0  0  0  0  0  0  0  0  0  0  0  0
    9.0968  -19.1404    0.0000 C   0  0  0  0  0  0  0  0  0  0  0  0
    8.3896  -22.0424    0.0000 C   0  0  0  0  0  0  0  0  0  0  0  0
    8.3909  -22.8674    0.0000 C   0  0  0  0  0  0  0  0  0  0  0  0
    7.7278  -23.3518    0.0000 N   0  0  0  0  0  0  0  0  0  0  0  0
    7.9839  -24.1360    0.0000 C   0  0  0  0  0  0  0  0  0  0  0  0
    8.8090  -24.1347    0.0000 N   0  0  0  0  0  0  0  0  0  0  0  0
    9.0626  -23.3497    0.0000 C   0  0  0  0  0  0  0  0  0  0  0  0
  8  9  1  0  0  0  0 
  4  5  1  0  0  0  0 
  8 10  2  0  0  0  0 
  2  3  1  0  0  0  0 
  8 11  2  0  0  0  0 
  5  6  2  0  0  0  0 
  9 12  1  0  0  0  0 
  6  1  1  0  0  0  0 
  4 13  1  0  0  0  0 
  1  2  2  0  0  0  0 
 13 14  1  0  0  0  0 
 14 15  1  0  0  0  0 
  6  7  1  0  0  0  0 
  3  4  2  0  0  0  0 
  7  8  1  0  0  0  0 
 15 16  2  0  0  0  0 
 16 17  1  0  0  0  0 
 17 18  1  0  0  0  0 
 18 14  2  0  0  0  0 
M  END