
          05080814042D 1   1.00000     0.00000     0

 37 41  0     1  0            999 V2000
   -5.1722    1.6432    0.0000 C   0  0  0  0  0  0           0  0  0
   -5.1734    0.8172    0.0000 C   0  0  0  0  0  0           0  0  0
   -4.4596    0.4049    0.0000 C   0  0  0  0  0  0           0  0  0
   -4.4614    2.0552    0.0000 C   0  0  0  0  0  0           0  0  0
   -3.7473    1.6468    0.0000 C   0  0  0  0  0  0           0  0  0
   -3.7438    0.8151    0.0000 C   0  0  0  0  0  0           0  0  0
   -3.0259    0.4044    0.0000 C   0  0  0  0  0  0           0  0  0
   -3.0327    2.0679    0.0000 C   0  0  0  0  0  0           0  0  0
   -2.3100    1.6527    0.0000 C   0  0  2  0  0  0           0  0  0
   -2.3089    0.8194    0.0000 C   0  0  2  0  0  0           0  0  0
   -1.5907    0.4058    0.0000 N   0  0  3  0  0  0           0  0  0
   -0.8689    0.8212    0.0000 C   0  0  0  0  0  0           0  0  0
   -0.8700    1.6546    0.0000 C   0  0  1  0  0  0           0  0  0
   -1.5928    2.0726    0.0000 C   0  0  0  0  0  0           0  0  0
   -1.5908   -0.4178    0.0000 C   0  0  0  0  0  0           0  0  0
   -0.1567    2.0665    0.0000 C   0  0  0  0  0  0           0  0  0
    0.5567    1.6549    0.0000 N   0  0  3  0  0  0           0  0  0
   -0.1569    2.8902    0.0000 O   0  0  0  0  0  0           0  0  0
    0.5512    0.8266    0.0000 C   0  0  0  0  0  0           0  0  0
    1.2604    0.4150    0.0000 C   0  0  0  0  0  0           0  0  0
    1.9761    0.8235    0.0000 N   0  0  3  0  0  0           0  0  0
    1.9779    1.6481    0.0000 C   0  0  0  0  0  0           0  0  0
    1.2640    2.0642    0.0000 C   0  0  0  0  0  0           0  0  0
   -2.3170   -0.0042    0.0000 H   0  0  0  0  0  0           0  0  0
   -2.3170    2.4793    0.0000 H   0  0  0  0  0  0           0  0  0
    2.6880    0.4091    0.0000 C   0  0  0  0  0  0           0  0  0
   -4.4641    2.8794    0.0000 O   0  0  0  0  0  0           0  0  0
   -5.1787    3.2891    0.0000 C   0  0  0  0  0  0           0  0  0
    2.6816   -0.4129    0.0000 C   0  0  0  0  0  0           0  0  0
    3.3927   -0.8272    0.0000 C   0  0  0  0  0  0           0  0  0
    4.1084   -0.4177    0.0000 C   0  0  0  0  0  0           0  0  0
    4.1086    0.4101    0.0000 C   0  0  0  0  0  0           0  0  0
    3.3971    0.8207    0.0000 C   0  0  0  0  0  0           0  0  0
    4.8261   -0.8323    0.0000 N   0  3  0  0  0  0           0  0  0
    5.5403   -0.4220    0.0000 O   0  0  0  0  0  0           0  0  0
    4.8243   -1.6560    0.0000 O   0  5  0  0  0  0           0  0  0
   -4.4611   -0.4187    0.0000 Cl  0  0  0  0  0  0           0  0  0
  7 10  1  0     0  0
 16 18  2  0     0  0
 17 19  1  0     0  0
  9  8  1  0     0  0
  9 10  1  0     0  0
  5  4  2  0     0  0
  4  1  1  0     0  0
  5  6  1  0     0  0
 17 23  1  0     0  0
 19 20  1  0     0  0
 20 21  1  0     0  0
 21 22  1  0     0  0
 22 23  1  0     0  0
 10 24  1  1     0  0
  2  3  1  0     0  0
  9 25  1  6     0  0
  3  6  2  0     0  0
 21 26  1  0     0  0
  9 14  1  0     0  0
 10 11  1  0     0  0
 27 28  1  0     0  0
  4 27  1  0     0  0
 11 12  1  0     0  0
 26 29  2  0     0  0
 12 13  1  0     0  0
 29 30  1  0     0  0
 13 14  1  0     0  0
 30 31  2  0     0  0
  1  2  2  0     0  0
 31 32  1  0     0  0
 11 15  1  0     0  0
 32 33  2  0     0  0
 33 26  1  0     0  0
  5  8  1  0     0  0
 13 16  1  1     0  0
  6  7  1  0     0  0
 34 35  2  0     0  0
 34 36  1  0     0  0
 31 34  1  0     0  0
 16 17  1  0     0  0
  3 37  1  0     0  0
M  CHG  2  34   1  36  -1
M  END