
  CDK    9/16/09,10:8

 34 36  0  0  0  0  0  0  0  0999 V2000
   -4.1333   -3.4292    0.0000 C   0  0  0  0  0  0  0  0  0  0  0  0
   -4.1333   -4.2542    0.0000 C   0  0  0  0  0  0  0  0  0  0  0  0
   -3.4213   -4.6625    0.0000 C   0  0  0  0  0  0  0  0  0  0  0  0
   -3.4213   -3.0125    0.0000 C   0  0  0  0  0  0  0  0  0  0  0  0
   -2.7093   -3.4292    0.0000 C   0  0  0  0  0  0  0  0  0  0  0  0
   -2.7128   -4.2542    0.0000 C   0  0  0  0  0  0  0  0  0  0  0  0
   -2.0040   -4.6674    0.0000 C   0  0  0  0  0  0  0  0  0  0  0  0
   -1.2872   -4.2602    0.0000 C   0  0  0  0  0  0  0  0  0  0  0  0
   -2.0087   -5.4924    0.0000 O   0  0  0  0  0  0  0  0  0  0  0  0
   -1.9970   -3.0174    0.0000 C   0  0  0  0  0  0  0  0  0  0  0  0
   -1.2813   -3.4361    0.0000 C   0  0  0  0  0  0  0  0  0  0  0  0
   -0.5676   -0.5289    0.0000 C   0  0  0  0  0  0  0  0  0  0  0  0
   -1.2823   -0.9479    0.0000 C   0  0  0  0  0  0  0  0  0  0  0  0
   -1.2735   -1.7807    0.0000 C   0  0  0  0  0  0  0  0  0  0  0  0
   -1.9962   -2.1905    0.0000 C   0  0  0  0  0  0  0  0  0  0  0  0
   -2.0042   -3.8417    0.0000 H   0  0  0  0  0  0  0  0  0  0  0  0
   -2.0001   -0.5413    0.0000 C   0  0  0  0  0  0  0  0  0  0  0  0
   -2.0068    0.2837    0.0000 C   0  0  0  0  0  0  0  0  0  0  0  0
   -2.8152    1.5074    0.0000 O   0  0  0  0  0  0  0  0  0  0  0  0
   -3.6236    1.6674    0.0000 C   0  0  0  0  0  0  0  0  0  0  0  0
   -4.0303    0.9519    0.0000 C   0  0  0  0  0  0  0  0  0  0  0  0
   -3.4732    0.3479    0.0000 C   0  0  0  0  0  0  0  0  0  0  0  0
   -3.9652    2.4248    0.0000 O   0  0  0  0  0  0  0  0  0  0  0  0
   -2.7167   -2.6042    0.0000 C   0  0  0  0  0  0  0  0  0  0  0  0
   -3.6358   -0.4609    0.0000 C   0  0  0  0  0  0  0  0  0  0  0  0
   -2.7208   -5.0750    0.0000 H   0  0  0  0  0  0  0  0  0  0  0  0
   -3.2125   -5.4583    0.0000 C   0  0  0  0  0  0  0  0  0  0  0  0
   -4.1417   -5.0708    0.0000 C   0  0  0  0  0  0  0  0  0  0  0  0
   -0.8750   -2.7167    0.0000 C   0  0  0  0  0  0  0  0  0  0  0  0
   -0.5708   -3.8458    0.0000 O   0  0  0  0  0  0  0  0  0  0  0  0
   -4.1482   -5.8958    0.0000 O   0  0  0  0  0  0  0  0  0  0  0  0
   -1.2957    0.7020    0.0000 O   0  0  0  0  0  0  0  0  0  0  0  0
   -2.7246    0.6904    0.0000 C   0  0  0  0  0  0  0  0  0  0  0  0
   -2.0101    1.1029    0.0000 H   0  0  0  0  0  0  0  0  0  0  0  0
 10 16  1  6  0  0  0 
  6  7  1  0  0  0  0 
 13 17  2  0  0  0  0 
  7  8  1  0  0  0  0 
 17 18  1  0  0  0  0 
  8 11  1  0  0  0  0 
 33 18  1  0  0  0  0 
 33 19  1  0  0  0  0 
  3  6  1  0  0  0  0 
  7  9  1  6  0  0  0 
 10 11  1  0  0  0  0 
  5  4  1  0  0  0  0 
 19 20  1  0  0  0  0 
 20 21  1  0  0  0  0 
 21 22  2  0  0  0  0 
 22 33  1  0  0  0  0 
  5  6  1  0  0  0  0 
 20 23  2  0  0  0  0 
  5 24  1  1  0  0  0 
  1  2  1  0  0  0  0 
 22 25  1  0  0  0  0 
  1  4  1  0  0  0  0 
  6 26  1  6  0  0  0 
  2  3  1  0  0  0  0 
  3 27  1  1  0  0  0 
 10 15  1  0  0  0  0 
  3 28  1  0  0  0  0 
 12 13  1  0  0  0  0 
 11 29  1  0  0  0  0 
 13 14  1  0  0  0  0 
 11 30  1  6  0  0  0 
 14 15  1  0  0  0  0 
 28 31  1  0  0  0  0 
  5 10  1  0  0  0  0 
 18 32  1  1  0  0  0 
 33 34  1  1  0  0  0 
M  END