
  SciTegic07061118172D

 21 22  0  0  0  0            999 V2000
    3.2069  -16.2625    0.0000 C   0  0
    3.2058  -17.0898    0.0000 C   0  0
    3.9206  -17.5027    0.0000 C   0  0
    4.6370  -17.0894    0.0000 C   0  0
    4.6342  -16.2588    0.0000 C   0  0
    3.9188  -15.8497    0.0000 C   0  0
    2.4924  -15.8501    0.0000 Br  0  0
    5.3471  -15.8436    0.0000 S   0  0
    6.0631  -16.2534    0.0000 N   0  0
    6.7760  -15.8383    0.0000 C   0  0
    7.4920  -16.2481    0.0000 C   0  0
    8.2050  -15.8329    0.0000 C   0  0
    8.9210  -16.2427    0.0000 C   0  0
    9.6339  -15.8275    0.0000 C   0  0
   10.3494  -16.2377    0.0000 N   0  0
   10.3481  -17.0582    0.0000 C   0  0
   11.1309  -17.3186    0.0000 C   0  0
   11.6205  -16.6545    0.0000 C   0  0
   11.1401  -15.9838    0.0000 C   0  0
    4.7583  -15.2542    0.0000 O   0  0
    5.9292  -15.2542    0.0000 O   0  0
  9 10  1  0
  5  6  2  0
 10 11  1  0
  6  1  1  0
 11 12  1  0
  1  2  2  0
 12 13  1  0
  1  7  1  0
 13 14  1  0
  3  4  2  0
 14 15  1  0
 15 16  1  0
  5  8  1  0
  8  9  1  0
  4  5  1  0
 16 17  1  0
 17 18  1  0
 18 19  1  0
 19 15  1  0
  8 20  2  0
  2  3  1  0
  8 21  2  0
M  END