
  SciTegic11201309402D

111119  0  0  0  0            999 V2000
   20.5668  -12.8956    0.0000 C   0  0
   19.8552  -12.4753    0.0000 C   0  0
   19.8674  -11.6504    0.0000 C   0  0
   20.5872  -11.2468    0.0000 O   0  0
   19.1584  -11.2257    0.0000 O   0  0
   20.5590  -13.7205    0.0000 C   0  0  2  0  0  0
   20.5751  -15.3537    0.0000 C   0  0
   19.8539  -14.9530    0.0000 C   0  0
   19.8405  -14.1281    0.0000 N   0  0
   19.1463  -15.3771    0.0000 O   0  0
   21.2687  -14.1411    0.0000 C   0  0
   21.9878  -13.7368    0.0000 N   0  0
   21.2593  -14.9661    0.0000 O   0  0
   25.0794  -16.8052    0.0000 C   0  0
    9.0106  -23.7096    0.0000 C   0  0
    8.2254  -25.1688    0.0000 O   0  0
   21.1823  -21.7845    0.0000 C   0  0
   21.4068  -20.9907    0.0000 N   0  0
   21.7575  -22.3759    0.0000 O   0  0
   22.2066  -20.7882    0.0000 C   0  0  2  0  0  0
   22.4311  -19.9943    0.0000 C   0  0
   22.7818  -21.3796    0.0000 C   0  0  1  0  0  0
   22.5573  -22.1734    0.0000 C   0  0
   23.5816  -21.1771    0.0000 O   0  0
   23.2309  -19.7919    0.0000 N   0  0
   21.8559  -19.4029    0.0000 O   0  0
   20.1585  -22.7757    0.0000 N   0  0
   20.3829  -21.9866    0.0000 C   0  0  1  0  0  0
   19.7015  -21.5295    0.0000 C   0  0
   19.0562  -22.0363    0.0000 C   0  0
   19.3388  -22.8065    0.0000 C   0  0
   23.4554  -18.9980    0.0000 C   0  0  2  0  0  0
   24.2552  -18.7955    0.0000 C   0  0
   22.8802  -18.4066    0.0000 C   0  0
   24.8304  -19.3869    0.0000 O   0  0
   24.4807  -18.0002    0.0000 N   0  0
   25.2112  -17.6196    0.0000 C   0  0
   24.2640  -16.6789    0.0000 C   0  0
   23.8906  -17.4158    0.0000 C   0  0  1  0  0  0
   23.0656  -17.4141    0.0000 C   0  0
   22.6550  -16.6994    0.0000 N   0  0
   22.6516  -18.1277    0.0000 O   0  0
   23.2082  -16.0883    0.0000 C   0  0
   22.7996  -15.3716    0.0000 C   0  0
   21.9916  -15.5389    0.0000 C   0  0
   21.9008  -16.3596    0.0000 C   0  0  1  0  0  0
   21.1776  -16.7565    0.0000 C   0  0
   20.5842  -16.1786    0.0000 N   0  0
   21.1596  -17.5813    0.0000 O   0  0
   21.9344  -21.7504    0.0000 H   0  0
   20.7384  -23.3625    0.0000 C   0  0
   20.5202  -24.1581    0.0000 C   0  0  1  0  0  0
   21.5365  -23.1537    0.0000 O   0  0
   19.7221  -24.3669    0.0000 N   0  0
   21.1001  -24.7449    0.0000 C   0  0
   21.8982  -24.5361    0.0000 C   0  0
   18.8999  -24.3779    0.0000 C   0  0
   18.4814  -23.6670    0.0000 C   0  0
   18.4935  -25.0958    0.0000 O   0  0
   16.9333  -23.2747    0.0000 C   0  0
   16.2277  -23.7023    0.0000 C   0  0
   16.9157  -22.4499    0.0000 O   0  0
   15.5046  -23.3051    0.0000 C   0  0
   14.7991  -23.7327    0.0000 C   0  0
   14.0760  -23.3355    0.0000 C   0  0
   13.3705  -23.7631    0.0000 N   0  0
   12.6474  -23.3660    0.0000 C   0  0
   11.9419  -23.7936    0.0000 N   0  0
   12.6298  -22.5411    0.0000 S   0  0
   11.2188  -23.3964    0.0000 C   0  0
   11.2065  -22.5740    0.0000 C   0  0
   10.4844  -22.1768    0.0000 C   0  0
   10.5226  -23.8269    0.0000 C   0  0
    9.8034  -23.4335    0.0000 C   0  0
    9.7831  -22.5999    0.0000 C   0  0
    8.9780  -22.3609    0.0000 C   0  0
    8.5059  -23.0469    0.0000 O   0  0
    8.7118  -21.5825    0.0000 O   0  0
    9.4530  -24.4090    0.0000 C   0  0
    9.0516  -25.1387    0.0000 C   0  0
    9.4879  -25.8432    0.0000 C   0  0
   10.3171  -25.8193    0.0000 C   0  0
   10.7095  -25.0850    0.0000 C   0  0
   10.2779  -24.3835    0.0000 C   0  0
    7.7958  -24.4646    0.0000 C   0  0
    8.1750  -23.7402    0.0000 C   0  0
    7.7489  -23.0430    0.0000 C   0  0
    6.9269  -23.0689    0.0000 C   0  0
    6.5413  -23.7979    0.0000 C   0  0
    6.9781  -24.4922    0.0000 C   0  0
   10.7510  -26.5208    0.0000 O   0  0
    5.7165  -23.8273    0.0000 O   0  0
   22.4782  -25.1228    0.0000 C   0  0
   22.2606  -25.9205    0.0000 O   0  0
   23.2769  -24.9160    0.0000 O   0  0
   17.6558  -23.6751    0.0000 N   0  0
   19.8550  -16.5671    0.0000 C   0  0
   19.8269  -17.3917    0.0000 C   0  0
   19.0988  -17.7796    0.0000 C   0  0
   19.0707  -18.6041    0.0000 C   0  0
   18.3426  -18.9921    0.0000 C   0  0
   17.6500  -22.8500    0.0000 C   0  0
   18.3615  -22.4325    0.0000 C   0  0
   18.3557  -21.6075    0.0000 C   0  0
   17.6384  -21.2000    0.0000 C   0  0
   17.6426  -18.5555    0.0000 C   0  0
   16.9145  -18.9434    0.0000 C   0  0
   17.6325  -20.3751    0.0000 C   0  0
   21.0696  -15.8036    0.0000 H   0  0
   23.3680  -16.5632    0.0000 H   0  0
   20.5537  -21.0013    0.0000 H   0  0
 51 53  2  0
 15 86  1  0
 52 54  1  0
  3  4  1  0
 52 55  1  6
  8  9  1  0
 55 56  1  0
 15 79  1  0
 54 57  1  0
 85 16  1  0
 57 58  1  0
 28 29  1  0
 57 59  2  0
 58 96  1  0
 29 30  1  0
 96 60  1  0
 30 31  1  0
 60 61  1  0
 31 27  1  0
 60 62  2  0
 16 80  1  0
 61 63  1  0
 25 32  1  0
 63 64  1  0
  3  5  2  0
 64 65  1  0
 32 33  1  0
 65 66  1  0
 28 17  1  0
 66 67  1  0
 32 34  1  1
 67 68  1  0
  8 10  2  0
 67 69  2  0
 33 35  2  0
 68 70  1  0
 17 18  1  0
 70 71  2  0
 33 36  1  0
 71 72  1  0
 72 75  2  0
 36 37  1  0
 74 73  2  0
 73 70  1  0
 74 75  1  0
  6  9  1  1
 17 19  2  0
  2  3  1  0
 37 14  1  0
 75 76  1  0
 76 77  1  0
 77 15  1  0
 15 74  1  0
 14 38  1  0
 76 78  2  0
 38 39  1  0
 39 36  1  0
 79 80  2  0
 18 20  1  0
 80 81  1  0
 39 40  1  0
 81 82  2  0
  6 11  1  0
 82 83  1  0
 40 41  1  0
 83 84  2  0
 84 79  1  0
 20 21  1  0
 40 42  2  0
 85 86  2  0
 41 43  1  0
 86 87  1  0
  1  2  1  0
 87 88  2  0
 20 22  1  0
 88 89  1  0
 11 12  1  0
 89 90  2  0
 90 85  1  0
 22 23  1  6
 82 91  1  0
 43 44  1  0
 89 92  1  0
 44 45  1  0
 56 93  1  0
 45 46  1  0
 46 41  1  0
 93 94  1  0
 93 95  2  0
 48  7  1  0
 46 47  1  0
 48 97  1  0
  6  1  1  0
 22 24  1  0
 97 98  1  0
 47 48  1  0
 98 99  1  0
 11 13  2  0
 99100  1  0
 47 49  2  0
100101  1  0
 21 25  1  0
 96102  1  0
 20 50  1  1
102103  1  0
  7  8  1  0
103104  1  0
 27 51  1  0
104105  1  0
 21 26  2  0
101106  1  0
 51 52  1  0
106107  1  0
 27 28  1  0
105108  1  0
107108  2  0
 46109  1  1
 39110  1  1
 28111  1  6
M  END