
  SciTegic01181116592D

 25 28  0  0  0  0            999 V2000
    0.5420    2.3772    0.0000 C   0  0
    1.2754    2.7153    0.0000 N   0  0
    0.6905    3.1235    0.0000 C   0  0
    2.0980    2.3664    0.0000 C   0  0  2  0  0  0
    1.1384    3.7363    0.0000 C   0  0
    1.4150    3.4485    0.0000 C   0  0
    2.2018    3.1060    0.0000 C   0  0  1  0  0  0
    1.3773    4.3350    0.0000 C   0  0
    2.9222    3.5092    0.0000 N   0  0
    2.5047    1.6480    0.0000 C   0  0
    2.0859    0.9364    0.0000 C   0  0
    1.2610    0.9471    0.0000 C   0  0
    0.8422    0.2365    0.0000 C   0  0
    1.2491   -0.4830    0.0000 C   0  0
    2.0789   -0.4874    0.0000 N   0  0
    2.4939    0.2240    0.0000 C   0  0
    3.6317    3.0870    0.0000 C   0  0
    4.3521    3.4903    0.0000 N   0  0
    3.6207    2.2614    0.0000 O   0  0
    5.0616    3.0679    0.0000 C   0  0
    5.0485    2.2424    0.0000 C   0  0
    5.7571    1.8202    0.0000 C   0  0
    6.4786    2.2235    0.0000 C   0  0
    6.4869    3.0534    0.0000 C   0  0
    5.7776    3.4719    0.0000 C   0  0
 11 12  2  0
  2  5  1  0
 12 13  1  0
  3  6  1  0
 13 14  2  0
  4  7  1  0
 14 15  1  0
  5  8  1  0
 15 16  2  0
 16 11  1  0
  6  7  1  0
  9 17  1  0
  6  8  1  0
 17 18  1  0
 17 19  2  0
  7  9  1  1
 18 20  1  0
  1  2  1  0
 20 21  2  0
  4 10  1  6
 21 22  1  0
  1  3  1  0
 22 23  2  0
 10 11  1  0
 23 24  1  0
  2  4  1  0
 24 25  2  0
 25 20  1  0
M  END