
  SciTegic09261410572D

 49 46  0  0  0  0            999 V2000
   -2.7785   -0.1008    0.0000 C   0  0  2  0  0  0
   -2.0640   -0.5133    0.0000 C   0  0  2  0  0  0
   -2.7785    0.7242    0.0000 C   0  0  1  0  0  0
   -3.4930   -1.3383    0.0000 S   0  0
   -1.3496   -1.7508    0.0000 S   0  0
   -3.4930    1.9617    0.0000 S   0  0
   -1.3496    3.1992    0.0000 S   0  0
   -2.0640    1.1367    0.0000 C   0  0  1  0  0  0
   -1.3496   -0.1008    0.0000 C   0  0  2  0  0  0
   -1.3496    0.7242    0.0000 O   0  0
   -3.4930   -0.5133    0.0000 O   0  0
   -2.0640   -1.3383    0.0000 O   0  0
   -3.4930    1.1367    0.0000 O   0  0
    3.6517   -0.5133    0.0000 N   0  0
    3.6517   -1.3383    0.0000 C   0  0
   -2.0640    1.9617    0.0000 C   0  0
   -1.3496    2.3742    0.0000 O   0  0
   -3.4930    2.7867    0.0000 O   0  5
   -0.6351   -2.1633    0.0000 O   0  5
   -3.4930   -2.1633    0.0000 O   0  5
   -1.3496    4.0242    0.0000 O   0  5
    2.2228   -0.5133    0.0000 C   0  0
   -4.3180   -1.3383    0.0000 O   0  0
   -1.7621   -2.4653    0.0000 O   0  0
   -4.3180    1.9617    0.0000 O   0  0
   -0.9371   -1.0364    0.0000 O   0  0
   -2.6680    1.9617    0.0000 O   0  0
   -2.6680   -1.3383    0.0000 O   0  0
   -0.5246    3.1992    0.0000 O   0  0
   -2.1746    3.1992    0.0000 O   0  0
    2.9373   -0.1008    0.0000 C   0  0
    4.3662   -0.1008    0.0000 C   0  0
    4.3662   -1.7508    0.0000 O   0  0
    2.2228   -1.3383    0.0000 O   0  0
    1.5083   -0.1008    0.0000 N   0  0
   -0.6351   -0.5133    0.0000 O   0  0
    5.0807   -0.5133    0.0000 C   0  0
    8.7489    0.0000    0.0000 Na  0  3
    9.7507    0.0000    0.0000 Na  0  3
    0.0000   -4.1153    0.0000 Na  0  3
    1.0018   -4.1153    0.0000 Na  0  3
    2.9373   -1.7508    0.0000 C   0  0
    0.7939   -0.5133    0.0000 C   0  0
    0.0794   -0.1008    0.0000 C   0  0
    5.0807   -1.3383    0.0000 C   0  0
    5.7952   -0.1008    0.0000 C   0  0
    6.5096   -0.5133    0.0000 C   0  0
    5.7952   -1.7508    0.0000 C   0  0
    6.5096   -1.3383    0.0000 C   0  0
  2  1  1  0
  3  1  1  0
  4 11  1  0
  5 12  1  0
  6 13  1  0
  7 17  1  0
  8  3  1  0
  9  2  1  0
 10  8  1  0
  1 11  1  1
  2 12  1  6
  3 13  1  6
 14 31  1  0
 15 14  1  0
  8 16  1  6
 17 16  1  0
 18  6  1  0
 19  5  1  0
 20  4  1  0
 21  7  1  0
 22 35  1  0
 23  4  2  0
 24  5  2  0
 25  6  2  0
 26  5  2  0
 27  6  2  0
 28  4  2  0
 29  7  2  0
 30  7  2  0
 31 22  1  0
 32 14  1  0
 33 15  2  0
 34 22  2  0
 35 43  1  0
  9 36  1  6
 37 32  1  0
 42 15  1  0
 43 44  1  0
 44 36  1  0
 45 37  1  0
 46 37  2  0
 47 46  1  0
 48 45  2  0
 49 47  2  0
 10  9  1  0
 48 49  1  0
M  CHG  8  18  -1  19  -1  20  -1  21  -1  38   1  39   1  40   1  41   1
M  END