
          11280715402D 1   1.00000     0.00000     0

 21 23  0     0  0            999 V2000
    3.0500   -3.6500    0.0000 C   0  0  0  0  0  0           0  0  0
    2.5750   -2.9750    0.0000 N   0  0  0  0  0  0           0  0  0
    2.5542   -4.3125    0.0000 N   0  0  0  0  0  0           0  0  0
    1.7875   -3.2167    0.0000 C   0  0  0  0  0  0           0  0  0
    1.7750   -4.0417    0.0000 C   0  0  0  0  0  0           0  0  0
    9.2417   -3.0292    0.0000 C   0  0  3  0  0  0           0  0  0
    3.8750   -3.6667    0.0000 C   0  0  0  0  0  0           0  0  0
    9.9667   -2.6375    0.0000 C   0  0  0  0  0  0           0  0  0
    9.2542   -2.2125    0.0000 C   0  0  0  0  0  0           0  0  0
    8.8250   -3.7417    0.0000 N   0  0  0  0  0  0           0  0  0
    4.2750   -4.3792    0.0000 C   0  0  0  0  0  0           0  0  0
    4.2917   -2.9542    0.0000 C   0  0  0  0  0  0           0  0  0
    6.3500   -3.7042    0.0000 O   0  0  0  0  0  0           0  0  0
    7.5750   -4.4375    0.0000 C   0  0  3  0  0  0           0  0  0
    5.5250   -3.6917    0.0000 C   0  0  0  0  0  0           0  0  0
    8.0000   -3.7292    0.0000 C   0  0  0  0  0  0           0  0  0
    6.7500   -4.4250    0.0000 C   0  0  0  0  0  0           0  0  0
    5.1167   -2.9667    0.0000 C   0  0  0  0  0  0           0  0  0
    5.1000   -4.4000    0.0000 C   0  0  0  0  0  0           0  0  0
    7.9792   -5.1542    0.0000 O   0  0  0  0  0  0           0  0  0
    1.1000   -4.5167    0.0000 C   0  0  0  0  0  0           0  0  0
  2  1  1  0     0  0
  3  1  2  0     0  0
  4  2  1  0     0  0
  5  3  1  0     0  0
  6 10  1  0     0  0
  7  1  1  0     0  0
  8  6  1  0     0  0
  9  6  1  0     0  0
 10 16  1  0     0  0
 11  7  2  0     0  0
 12  7  1  0     0  0
 13 15  1  0     0  0
 14 17  1  0     0  0
 15 18  1  0     0  0
 16 14  1  0     0  0
 17 13  1  0     0  0
 18 12  2  0     0  0
 19 11  1  0     0  0
 20 14  1  0     0  0
 21  5  1  0     0  0
  5  4  2  0     0  0
 15 19  2  0     0  0
  9  8  1  0     0  0
M  END