
  SciTegic01161211252D

 30 34  0  0  0  0            999 V2000
    0.6309  -25.2349    0.0000 C   0  0
    0.6296  -26.0625    0.0000 C   0  0
    1.3426  -26.4754    0.0000 C   0  0
    1.3406  -24.8221    0.0000 C   0  0
   -0.0839  -24.8230    0.0000 F   0  0
    1.3367  -23.9972    0.0000 C   0  0
    2.0587  -25.2309    0.0000 C   0  0
    2.0592  -26.0625    0.0000 C   0  0
    2.8503  -26.3190    0.0000 N   0  0
    3.3387  -25.6458    0.0000 C   0  0
    2.8494  -24.9735    0.0000 N   0  0
    4.1637  -25.6452    0.0000 C   0  0
    4.5720  -26.3608    0.0000 C   0  0
    5.3962  -26.3607    0.0000 C   0  0
    5.8090  -25.6454    0.0000 C   0  0
    5.3916  -24.9288    0.0000 C   0  0
    4.5688  -24.9326    0.0000 C   0  0
    4.1522  -24.2205    0.0000 C   0  0
    6.6340  -25.6437    0.0000 O   0  0
    7.0479  -26.3573    0.0000 C   0  0
    7.8729  -26.3556    0.0000 C   0  0
    8.2868  -27.0693    0.0000 C   0  0
    9.1117  -27.0676    0.0000 N   0  0
    9.6009  -27.7313    0.0000 C   0  0
    9.5983  -26.3965    0.0000 C   0  0
   10.3855  -26.6465    0.0000 C   0  0
   10.3809  -27.4715    0.0000 C   0  0
   11.1642  -27.7308    0.0000 C   0  0
   11.6528  -27.0660    0.0000 C   0  0
   11.1715  -26.3960    0.0000 N   0  0
  7  8  1  0
 14 15  2  0
  3  8  2  0
 15 16  1  0
  1  2  2  0
 16 17  2  0
 17 12  1  0
  7  4  2  0
 17 18  1  0
  4  1  1  0
 15 19  1  0
 19 20  1  0
  8  9  1  0
 20 21  1  0
  9 10  1  0
 21 22  1  0
 10 11  2  0
 22 23  1  0
 23 24  1  0
 11  7  1  0
  1  5  1  0
 27 24  1  0
 26 25  1  0
 25 23  1  0
 26 27  1  0
 10 12  1  0
  2  3  1  0
 12 13  2  0
  4  6  1  0
 13 14  1  0
 27 28  1  0
 28 29  1  0
 29 30  1  0
 30 26  1  0
M  END