
          11280715192D 1   1.00000     0.00000     0

 16 17  0     0  0            999 V2000
    7.0042   -5.2417    0.0000 N   0  0  3  0  0  0           0  0  0
    7.8292   -5.1542    0.0000 C   0  0  0  0  0  0           0  0  0
    7.2667   -7.4750    0.0000 C   0  0  0  0  0  0           0  0  0
    6.9292   -6.7167    0.0000 C   0  0  0  0  0  0           0  0  0
    6.6000   -5.9542    0.0000 C   0  0  3  0  0  0           0  0  0
    8.4292   -8.3167    0.0000 N   0  0  3  0  0  0           0  0  0
    8.3167   -5.8292    0.0000 O   0  0  0  0  0  0           0  0  0
    7.6042   -8.2292    0.0000 C   0  0  0  0  0  0           0  0  0
    6.4500   -4.6250    0.0000 C   0  0  0  0  0  0           0  0  0
    8.1667   -4.4000    0.0000 C   0  0  0  0  0  0           0  0  0
    8.9167   -8.9917    0.0000 C   0  0  0  0  0  0           0  0  0
    8.9167   -7.6500    0.0000 C   0  0  0  0  0  0           0  0  0
    5.7000   -4.9542    0.0000 C   0  0  0  0  0  0           0  0  0
    5.7875   -5.7792    0.0000 C   0  0  0  0  0  0           0  0  0
    9.7042   -7.9042    0.0000 C   0  0  0  0  0  0           0  0  0
    9.7042   -8.7250    0.0000 C   0  0  0  0  0  0           0  0  0
  2  1  1  0     0  0
  3  4  3  0     0  0
  4  5  1  0     0  0
  5  1  1  0     0  0
  6  8  1  0     0  0
  7  2  2  0     0  0
  8  3  1  0     0  0
  9  1  1  0     0  0
 10  2  1  0     0  0
 11  6  1  0     0  0
 12  6  1  0     0  0
 13  9  1  0     0  0
 14  5  1  0     0  0
 15 12  1  0     0  0
 16 11  1  0     0  0
 13 14  1  0     0  0
 16 15  1  0     0  0
M  END