
          11280715362D 1   1.00000     0.00000     0

 37 40  0     1  0            999 V2000
    4.4917   -5.4292    0.0000 C   0  0  0  0  0  0           0  0  0
    4.4917   -4.2542    0.0000 C   0  0  1  0  0  0           0  0  0
    5.0042   -4.5542    0.0000 C   0  0  2  0  0  0           0  0  0
    3.9917   -4.5542    0.0000 C   0  0  0  0  0  0           0  0  0
    5.5167   -4.2667    0.0000 N   0  0  3  0  0  0           0  0  0
    3.9917   -5.1417    0.0000 C   0  0  0  0  0  0           0  0  0
    5.0042   -5.1417    0.0000 C   0  0  0  0  0  0           0  0  0
    4.5042   -3.6667    0.0000 C   0  0  0  0  0  0           0  0  0
    4.4917   -6.0167    0.0000 C   0  0  0  0  0  0           0  0  0
    3.4792   -6.0042    0.0000 N   0  0  0  0  0  0           0  0  0
    5.0167   -3.3792    0.0000 C   0  0  0  0  0  0           0  0  0
    6.0417   -2.8042    0.0000 C   0  0  0  0  0  0           0  0  0
    5.5292   -3.6792    0.0000 C   0  0  0  0  0  0           0  0  0
    3.4792   -5.4167    0.0000 C   0  0  0  0  0  0           0  0  0
    8.4417   -5.5292    0.0000 C   0  0  0  0  0  0           0  0  0
    7.2292   -5.5292    0.0000 C   0  0  0  0  0  0           0  0  0
    8.1292   -5.0167    0.0000 C   0  0  0  0  0  0           0  0  0
    7.5292   -5.0167    0.0000 C   0  0  0  0  0  0           0  0  0
    5.5417   -2.5042    0.0000 O   0  0  0  0  0  0           0  0  0
    6.0417   -3.3917    0.0000 O   0  0  0  0  0  0           0  0  0
    9.0417   -5.5292    0.0000 O   0  0  0  0  0  0           0  0  0
    7.5292   -6.0542    0.0000 O   0  0  0  0  0  0           0  0  0
    5.0167   -2.7917    0.0000 C   0  0  0  0  0  0           0  0  0
    6.5542   -2.5167    0.0000 C   0  0  3  0  0  0           0  0  0
    3.4792   -4.2542    0.0000 C   0  0  0  0  0  0           0  0  0
    6.0292   -4.5667    0.0000 C   0  0  0  0  0  0           0  0  0
    8.1292   -6.0542    0.0000 O   0  0  0  0  0  0           0  0  0
    6.6292   -5.5292    0.0000 O   0  0  0  0  0  0           0  0  0
    2.9792   -4.5542    0.0000 C   0  0  0  0  0  0           0  0  0
    2.9792   -5.1417    0.0000 C   0  0  0  0  0  0           0  0  0
    7.0667   -2.8292    0.0000 C   0  0  0  0  0  0           0  0  0
    6.5667   -1.9292    0.0000 C   0  0  0  0  0  0           0  0  0
    7.0792   -1.6417    0.0000 C   0  0  0  0  0  0           0  0  0
    7.5792   -2.5417    0.0000 C   0  0  0  0  0  0           0  0  0
    7.5917   -1.9542    0.0000 C   0  0  0  0  0  0           0  0  0
    5.5167   -4.8542    0.0000 H   0  0  0  0  0  0           0  0  0
    3.7417   -3.7042    0.0000 H   0  0  0  0  0  0           0  0  0
  2  3  1  0     0  0
  3  7  1  0     0  0
  4  6  2  0     0  0
  5  3  1  0     0  0
  6  1  1  0     0  0
  7  1  1  0     0  0
  8  2  1  0     0  0
  9  1  2  0     0  0
 10  9  1  0     0  0
 11 13  1  0     0  0
 12 19  1  0     0  0
 13  5  1  0     0  0
 14  6  1  0     0  0
 16 18  1  0     0  0
 17 15  1  0     0  0
 18 17  2  0     0  0
 19 23  1  0     0  0
 20 12  2  0     0  0
 21 15  2  0     0  0
 22 16  2  0     0  0
 23 11  1  0     0  0
 24 12  1  0     0  0
 25  4  1  0     0  0
 26  5  1  0     0  0
 27 15  1  0     0  0
 28 16  1  0     0  0
 29 25  2  0     0  0
 30 14  2  0     0  0
 31 24  1  0     0  0
 32 24  1  0     0  0
 33 32  1  0     0  0
 34 31  1  0     0  0
 35 33  1  0     0  0
  3 36  1  1     0  0
  2 37  1  6     0  0
  2  4  1  0     0  0
 10 14  1  0     0  0
 30 29  1  0     0  0
  8 11  2  0     0  0
 35 34  1  0     0  0
M  END