
          11280715012D 1   1.00000     0.00000     0

 36 39  0     1  0            999 V2000
   10.3125   -5.0417    0.0000 S   0  0  3  0  0  0           0  0  0
    4.5417   -3.5292    0.0000 C   0  0  0  0  0  0           0  0  0
    4.0542   -4.1917    0.0000 N   0  0  3  0  0  0           0  0  0
    5.3167   -3.7917    0.0000 C   0  0  0  0  0  0           0  0  0
    9.6042   -4.6292    0.0000 N   0  0  0  0  0  0           0  0  0
    9.6042   -3.8042    0.0000 C   0  0  2  0  0  0           0  0  0
    5.3167   -4.6125    0.0000 C   0  0  0  0  0  0           0  0  0
    6.0375   -3.3792    0.0000 C   0  0  0  0  0  0           0  0  0
    7.4667   -3.3792    0.0000 C   0  0  0  0  0  0           0  0  0
    4.5375   -4.8667    0.0000 C   0  0  0  0  0  0           0  0  0
   10.3167   -3.3917    0.0000 C   0  0  0  0  0  0           0  0  0
    6.7500   -3.7917    0.0000 C   0  0  0  0  0  0           0  0  0
    8.1792   -3.8000    0.0000 N   0  0  0  0  0  0           0  0  0
   10.3042   -5.8667    0.0000 O   0  0  0  0  0  0           0  0  0
   11.0292   -4.6292    0.0000 O   0  0  0  0  0  0           0  0  0
   11.0167   -5.4542    0.0000 C   0  0  0  0  0  0           0  0  0
    4.2875   -2.7500    0.0000 O   0  0  0  0  0  0           0  0  0
    8.8917   -3.3875    0.0000 C   0  0  0  0  0  0           0  0  0
    3.2292   -4.1917    0.0000 C   0  0  0  0  0  0           0  0  0
    0.3292   -4.9417    0.0000 N   0  0  0  0  0  0           0  0  0
    6.0375   -5.0292    0.0000 C   0  0  0  0  0  0           0  0  0
    7.4667   -2.5542    0.0000 O   0  0  0  0  0  0           0  0  0
   10.3250   -2.5667    0.0000 O   0  0  0  0  0  0           0  0  0
    6.7500   -4.6167    0.0000 C   0  0  0  0  0  0           0  0  0
   11.0375   -3.8042    0.0000 O   0  0  0  0  0  0           0  0  0
    2.8125   -4.9042    0.0000 C   0  0  0  0  0  0           0  0  0
    1.9875   -4.9000    0.0000 C   0  0  3  0  0  0           0  0  0
    0.7292   -4.2167    0.0000 C   0  0  0  0  0  0           0  0  0
    0.7667   -5.6500    0.0000 C   0  0  0  0  0  0           0  0  0
   11.0167   -6.2667    0.0000 C   0  0  0  0  0  0           0  0  0
   11.7250   -5.0417    0.0000 C   0  0  0  0  0  0           0  0  0
    1.5500   -4.1917    0.0000 C   0  0  0  0  0  0           0  0  0
    1.5917   -5.6292    0.0000 C   0  0  0  0  0  0           0  0  0
   12.4292   -5.4500    0.0000 C   0  0  0  0  0  0           0  0  0
   11.7292   -6.6792    0.0000 C   0  0  0  0  0  0           0  0  0
   12.4375   -6.2667    0.0000 C   0  0  0  0  0  0           0  0  0
  2  4  1  0     0  0
  3  2  1  0     0  0
  4  8  1  0     0  0
  5  1  1  0     0  0
  6  5  1  1     0  0
  7 21  1  0     0  0
  8 12  2  0     0  0
  9 13  1  0     0  0
 10  7  1  0     0  0
 11  6  1  0     0  0
 12  9  1  0     0  0
 13 18  1  0     0  0
 14  1  2  0     0  0
 15  1  2  0     0  0
 16  1  1  0     0  0
 17  2  2  0     0  0
 18  6  1  0     0  0
 19  3  1  0     0  0
 20 29  1  0     0  0
 21 24  2  0     0  0
 22  9  2  0     0  0
 23 11  2  0     0  0
 24 12  1  0     0  0
 25 11  1  0     0  0
 26 19  1  0     0  0
 27 26  1  0     0  0
 28 32  1  0     0  0
 29 33  1  0     0  0
 30 16  2  0     0  0
 31 16  1  0     0  0
 32 27  1  0     0  0
 33 27  1  0     0  0
 34 31  2  0     0  0
 35 30  1  0     0  0
 36 34  1  0     0  0
 36 35  2  0     0  0
  7  4  2  0     0  0
  3 10  1  0     0  0
 20 28  1  0     0  0
M  END