
  SciTegic12171313052D

 31 36  0  0  0  0            999 V2000
    3.7476  -15.2156    0.0000 C   0  0
    3.7476  -16.0410    0.0000 N   0  0
    4.4600  -16.4494    0.0000 C   0  0
    5.1723  -16.0410    0.0000 C   0  0
    5.1723  -15.2156    0.0000 C   0  0
    4.4600  -14.7987    0.0000 C   0  0
    5.1733  -14.3902    0.0000 C   0  0
    5.8857  -15.6241    0.0000 N   0  0
    6.5980  -15.2156    0.0000 C   0  0
    6.5980  -14.3902    0.0000 C   0  0
    5.8857  -13.9733    0.0000 C   0  0
    7.3122  -15.6293    0.0000 O   0  0
    3.0334  -16.4545    0.0000 C   0  0
    5.8859  -16.4494    0.0000 C   0  0
    6.6008  -16.8619    0.0000 C   0  0
    8.0262  -17.6839    0.0000 C   0  0
    8.0233  -16.8542    0.0000 C   0  0
    7.3086  -16.4456    0.0000 C   0  0
    7.3105  -18.0969    0.0000 C   0  0
    6.5974  -17.6864    0.0000 C   0  0
    5.9867  -18.2377    0.0000 C   0  0
    6.3222  -18.9891    0.0000 C   0  0
    7.1404  -18.9019    0.0000 N   0  0
    2.2644  -16.1635    0.0000 N   0  0
    2.9955  -17.2810    0.0000 O   0  0
    2.1989  -17.4974    0.0000 C   0  0
    1.7499  -16.8054    0.0000 C   0  0
    0.9279  -16.8491    0.0000 C   0  0
    0.5541  -17.5843    0.0000 C   0  0
    1.0082  -18.2768    0.0000 C   0  0
    1.8286  -18.2295    0.0000 C   0  0
  1  2  1  0
  1  6  1  0
  2  3  1  0
  3  4  1  0
  4  5  1  0
  5  6  1  0
  7  5  1  0
  7 11  1  0
  5  8  1  0
  8  9  1  0
  9 10  1  0
 10 11  1  0
  9 12  2  0
  2 13  1  0
  8 14  1  0
 14 15  1  0
 15 20  2  0
 19 16  2  0
 16 17  1  0
 17 18  2  0
 18 15  1  0
 19 20  1  0
 20 21  1  0
 21 22  2  0
 22 23  1  0
 23 19  1  0
 13 24  2  0
 24 27  1  0
 26 25  1  0
 25 13  1  0
 26 27  2  0
 27 28  1  0
 28 29  2  0
 29 30  1  0
 30 31  2  0
 31 26  1  0
M  END