
  CDK    9/16/09,9:56

111113  0  0  0  0  0  0  0  0999 V2000
   14.5837   -7.0583    0.0000 N   0  0  0  0  0  0  0  0  0  0  0  0
   15.3021   -7.4750    0.0000 C   0  0  0  0  0  0  0  0  0  0  0  0
   16.0166   -7.0625    0.0000 C   0  0  0  0  0  0  0  0  0  0  0  0
   15.3021   -8.3000    0.0000 C   0  0  0  0  0  0  0  0  0  0  0  0
   16.7311   -7.4750    0.0000 N   0  0  0  0  0  0  0  0  0  0  0  0
   16.0166   -6.2375    0.0000 O   0  0  0  0  0  0  0  0  0  0  0  0
   16.0166   -8.7125    0.0000 C   0  0  0  0  0  0  0  0  0  0  0  0
   16.0166   -9.5375    0.0000 C   0  0  0  0  0  0  0  0  0  0  0  0
   16.7311   -9.9500    0.0000 N   0  0  0  0  0  0  0  0  0  0  0  0
   16.7311  -10.7750    0.0000 C   0  0  0  0  0  0  0  0  0  0  0  0
   17.4456  -11.1875    0.0000 N   0  0  0  0  0  0  0  0  0  0  0  0
   16.0166  -11.1875    0.0000 N   0  0  0  0  0  0  0  0  0  0  0  0
   13.8693   -7.4708    0.0000 C   0  0  0  0  0  0  0  0  0  0  0  0
   12.4364   -7.4708    0.0000 N   0  0  0  0  0  0  0  0  0  0  0  0
   13.1508   -7.0583    0.0000 C   0  0  0  0  0  0  0  0  0  0  0  0
   13.1508   -6.2333    0.0000 C   0  0  0  0  0  0  0  0  0  0  0  0
   13.8653   -5.8208    0.0000 C   0  0  0  0  0  0  0  0  0  0  0  0
   13.8653   -4.9958    0.0000 C   0  0  0  0  0  0  0  0  0  0  0  0
   14.5798   -4.5833    0.0000 N   0  0  0  0  0  0  0  0  0  0  0  0
   14.5798   -3.7583    0.0000 C   0  0  0  0  0  0  0  0  0  0  0  0
   15.2943   -3.3458    0.0000 N   0  0  0  0  0  0  0  0  0  0  0  0
   13.8653   -3.3458    0.0000 N   0  0  0  0  0  0  0  0  0  0  0  0
   13.8653   -8.2958    0.0000 O   0  0  0  0  0  0  0  0  0  0  0  0
   11.7215   -7.0625    0.0000 C   0  0  0  0  0  0  0  0  0  0  0  0
   11.7215   -6.2375    0.0000 O   0  0  0  0  0  0  0  0  0  0  0  0
   -1.8196   -7.4707    0.0000 O   0  0  0  0  0  0  0  0  0  0  0  0
   -1.8231   -8.2931    0.0000 C   0  0  0  0  0  0  0  0  0  0  0  0
   -2.5584   -8.6675    0.0000 C   0  0  0  0  0  0  0  0  0  0  0  0
   -3.2916   -8.2910    0.0000 C   0  0  0  0  0  0  0  0  0  0  0  0
   -3.4208   -7.4746    0.0000 O   0  0  0  0  0  0  0  0  0  0  0  0
   -3.8764   -8.8746    0.0000 C   0  0  0  0  0  0  0  0  0  0  0  0
   -4.6924   -8.7421    0.0000 O   0  0  0  0  0  0  0  0  0  0  0  0
   -3.5020   -9.6099    0.0000 C   0  0  0  0  0  0  0  0  0  0  0  0
   -2.6908   -9.4835    0.0000 O   0  0  0  0  0  0  0  0  0  0  0  0
   -3.8786  -10.3431    0.0000 N   0  0  0  0  0  0  0  0  0  0  0  0
   -4.6949  -10.4723    0.0000 C   0  0  0  0  0  0  0  0  0  0  0  0
   -4.8273  -11.2883    0.0000 N   0  0  0  0  0  0  0  0  0  0  0  0
   -4.0890  -11.6619    0.0000 C   0  0  0  0  0  0  0  0  0  0  0  0
   -3.8774  -12.4606    0.0000 C   0  0  0  0  0  0  0  0  0  0  0  0
   -4.4622  -13.0442    0.0000 N   0  0  0  0  0  0  0  0  0  0  0  0
   -3.0809  -12.6756    0.0000 N   0  0  0  0  0  0  0  0  0  0  0  0
   -2.4961  -12.0920    0.0000 C   0  0  0  0  0  0  0  0  0  0  0  0
   -2.7088  -11.2974    0.0000 N   0  0  0  0  0  0  0  0  0  0  0  0
   -3.5053  -11.0824    0.0000 C   0  0  0  0  0  0  0  0  0  0  0  0
   -1.1206   -8.7258    0.0000 N   0  0  0  0  0  0  0  0  0  0  0  0
    2.4333   -7.4750    0.0000 C   0  0  0  0  0  0  0  0  0  0  0  0
    3.1478   -7.0625    0.0000 N   0  0  0  0  0  0  0  0  0  0  0  0
    1.7147   -7.0625    0.0000 C   0  0  0  0  0  0  0  0  0  0  0  0
    2.4333   -8.3042    0.0000 O   0  0  0  0  0  0  0  0  0  0  0  0
    0.9961   -7.4750    0.0000 C   0  0  0  0  0  0  0  0  0  0  0  0
    0.2774   -7.0625    0.0000 C   0  0  0  0  0  0  0  0  0  0  0  0
   -0.4383   -7.4683    0.0000 C   0  0  0  0  0  0  0  0  0  0  0  0
   -0.4173   -8.2966    0.0000 C   0  0  0  0  0  0  0  0  0  0  0  0
    3.8623   -7.4750    0.0000 C   0  0  0  0  0  0  0  0  0  0  0  0
    4.5767   -7.0625    0.0000 C   0  0  0  0  0  0  0  0  0  0  0  0
    5.2912   -7.4750    0.0000 N   0  0  0  0  0  0  0  0  0  0  0  0
    6.0057   -7.0625    0.0000 C   0  0  0  0  0  0  0  0  0  0  0  0
    6.7202   -7.4750    0.0000 C   0  0  0  0  0  0  0  0  0  0  0  0
    7.4346   -7.0625    0.0000 C   0  0  0  0  0  0  0  0  0  0  0  0
    8.1491   -7.4750    0.0000 C   0  0  0  0  0  0  0  0  0  0  0  0
    3.8623   -8.3000    0.0000 C   0  0  0  0  0  0  0  0  0  0  0  0
    4.5767   -8.7125    0.0000 C   0  0  0  0  0  0  0  0  0  0  0  0
    4.5767   -9.5375    0.0000 C   0  0  0  0  0  0  0  0  0  0  0  0
    5.2912   -9.9500    0.0000 C   0  0  0  0  0  0  0  0  0  0  0  0
    5.2912  -10.7750    0.0000 N   0  0  0  0  0  0  0  0  0  0  0  0
    4.5767   -6.2375    0.0000 O   0  0  0  0  0  0  0  0  0  0  0  0
    8.8636   -7.0625    0.0000 C   0  0  0  0  0  0  0  0  0  0  0  0
    9.5780   -7.4750    0.0000 C   0  0  0  0  0  0  0  0  0  0  0  0
    9.5780   -8.3000    0.0000 O   0  0  0  0  0  0  0  0  0  0  0  0
   10.2925   -7.0625    0.0000 N   0  0  0  0  0  0  0  0  0  0  0  0
   11.0070   -7.4750    0.0000 C   0  0  0  0  0  0  0  0  0  0  0  0
   11.0070   -8.3000    0.0000 C   0  0  0  0  0  0  0  0  0  0  0  0
   11.7215   -8.7125    0.0000 C   0  0  0  0  0  0  0  0  0  0  0  0
   11.7215   -9.5375    0.0000 C   0  0  0  0  0  0  0  0  0  0  0  0
   12.4359   -9.9500    0.0000 N   0  0  0  0  0  0  0  0  0  0  0  0
   12.4359  -10.7750    0.0000 C   0  0  0  0  0  0  0  0  0  0  0  0
   11.7215  -11.1875    0.0000 N   0  0  0  0  0  0  0  0  0  0  0  0
   13.1504  -11.1875    0.0000 N   0  0  0  0  0  0  0  0  0  0  0  0
   17.4456   -7.0625    0.0000 C   0  0  0  0  0  0  0  0  0  0  0  0
   18.1600   -7.4750    0.0000 C   0  0  0  0  0  0  0  0  0  0  0  0
   17.4456   -6.2375    0.0000 C   0  0  0  0  0  0  0  0  0  0  0  0
   18.1600   -5.8250    0.0000 C   0  0  0  0  0  0  0  0  0  0  0  0
   18.1600   -5.0000    0.0000 C   0  0  0  0  0  0  0  0  0  0  0  0
   18.8745   -4.5875    0.0000 N   0  0  0  0  0  0  0  0  0  0  0  0
   18.8745   -3.7625    0.0000 C   0  0  0  0  0  0  0  0  0  0  0  0
   19.5890   -3.3500    0.0000 N   0  0  0  0  0  0  0  0  0  0  0  0
   18.1600   -3.3500    0.0000 N   0  0  0  0  0  0  0  0  0  0  0  0
   18.1600   -8.3000    0.0000 O   0  0  0  0  0  0  0  0  0  0  0  0
   18.8745   -7.0625    0.0000 N   0  0  0  0  0  0  0  0  0  0  0  0
   19.5890   -7.4750    0.0000 C   0  0  0  0  0  0  0  0  0  0  0  0
   20.3034   -7.0625    0.0000 C   0  0  0  0  0  0  0  0  0  0  0  0
   21.0179   -7.4750    0.0000 N   0  0  0  0  0  0  0  0  0  0  0  0
   20.3034   -6.2375    0.0000 O   0  0  0  0  0  0  0  0  0  0  0  0
   19.5890   -8.3000    0.0000 C   0  0  0  0  0  0  0  0  0  0  0  0
   20.3034   -8.7125    0.0000 C   0  0  0  0  0  0  0  0  0  0  0  0
   20.3034   -9.5375    0.0000 C   0  0  0  0  0  0  0  0  0  0  0  0
   21.0179   -9.9500    0.0000 N   0  0  0  0  0  0  0  0  0  0  0  0
   21.0179  -10.7750    0.0000 C   0  0  0  0  0  0  0  0  0  0  0  0
   21.7324  -11.1875    0.0000 N   0  0  0  0  0  0  0  0  0  0  0  0
   20.3034  -11.1875    0.0000 N   0  0  0  0  0  0  0  0  0  0  0  0
   21.7324   -7.0625    0.0000 C   0  0  0  0  0  0  0  0  0  0  0  0
   22.4469   -7.4750    0.0000 C   0  0  0  0  0  0  0  0  0  0  0  0
   21.7324   -6.2375    0.0000 C   0  0  0  0  0  0  0  0  0  0  0  0
   22.4469   -5.8250    0.0000 C   0  0  0  0  0  0  0  0  0  0  0  0
   22.4469   -5.0000    0.0000 C   0  0  0  0  0  0  0  0  0  0  0  0
   23.1613   -4.5875    0.0000 N   0  0  0  0  0  0  0  0  0  0  0  0
   23.1613   -3.7625    0.0000 C   0  0  0  0  0  0  0  0  0  0  0  0
   23.8758   -3.3500    0.0000 N   0  0  0  0  0  0  0  0  0  0  0  0
   22.4468   -3.3500    0.0000 N   0  0  0  0  0  0  0  0  0  0  0  0
   22.4469   -8.3000    0.0000 O   0  0  0  0  0  0  0  0  0  0  0  0
   23.1613   -7.0625    0.0000 N   0  0  0  0  0  0  0  0  0  0  0  0
 54 55  1  0  0  0  0 
  7  8  1  0  0  0  0 
 55 56  1  0  0  0  0 
 15 16  1  6  0  0  0 
 56 57  1  0  0  0  0 
 57 58  1  0  0  0  0 
 16 17  1  0  0  0  0 
 58 59  1  0  0  0  0 
  8  9  1  0  0  0  0 
 59 60  1  0  0  0  0 
 17 18  1  0  0  0  0 
 54 61  1  1  0  0  0 
  3  5  1  0  0  0  0 
 61 62  1  0  0  0  0 
 18 19  1  0  0  0  0 
 62 63  1  0  0  0  0 
  9 10  1  0  0  0  0 
 63 64  1  0  0  0  0 
 19 20  1  0  0  0  0 
 64 65  1  0  0  0  0 
  2  3  1  0  0  0  0 
 55 66  2  0  0  0  0 
 20 21  2  0  0  0  0 
 60 67  1  0  0  0  0 
 10 11  1  0  0  0  0 
 67 68  1  0  0  0  0 
 20 22  1  0  0  0  0 
 68 69  2  0  0  0  0 
 26 27  2  0  0  0  0 
 68 70  1  0  0  0  0 
 28 27  1  1  0  0  0 
 70 71  1  0  0  0  0 
 71 24  1  0  0  0  0 
 28 29  1  0  0  0  0 
 71 72  1  1  0  0  0 
 29 30  1  6  0  0  0 
 72 73  1  0  0  0  0 
 29 31  1  0  0  0  0 
 73 74  1  0  0  0  0 
 31 32  1  6  0  0  0 
 74 75  1  0  0  0  0 
 31 33  1  0  0  0  0 
 75 76  1  0  0  0  0 
 33 34  1  0  0  0  0 
 76 77  1  0  0  0  0 
 28 34  1  0  0  0  0 
 76 78  2  0  0  0  0 
 33 35  1  1  0  0  0 
  5 79  1  0  0  0  0 
 35 36  1  0  0  0  0 
 79 80  1  0  0  0  0 
 36 37  2  0  0  0  0 
 79 81  1  6  0  0  0 
 37 38  1  0  0  0  0 
 81 82  1  0  0  0  0 
 38 39  1  0  0  0  0 
 82 83  1  0  0  0  0 
 39 40  1  0  0  0  0 
 83 84  1  0  0  0  0 
 39 41  2  0  0  0  0 
 84 85  1  0  0  0  0 
 41 42  1  0  0  0  0 
 85 86  1  0  0  0  0 
 42 43  2  0  0  0  0 
 85 87  2  0  0  0  0 
 43 44  1  0  0  0  0 
 80 88  2  0  0  0  0 
 38 44  2  0  0  0  0 
 80 89  1  0  0  0  0 
 35 44  1  0  0  0  0 
 89 90  1  0  0  0  0 
  3  6  2  0  0  0  0 
 90 91  1  0  0  0  0 
 27 45  1  0  0  0  0 
 91 92  1  0  0  0  0 
 13 23  2  0  0  0  0 
 91 93  2  0  0  0  0 
 10 12  2  0  0  0  0 
 90 94  1  1  0  0  0 
 46 47  1  0  0  0  0 
 94 95  1  0  0  0  0 
 24 14  1  0  0  0  0 
 95 96  1  0  0  0  0 
 46 48  1  0  0  0  0 
 96 97  1  0  0  0  0 
  1  2  1  0  0  0  0 
 97 98  1  0  0  0  0 
 46 49  2  0  0  0  0 
 98 99  1  0  0  0  0 
 24 25  2  0  0  0  0 
 98100  2  0  0  0  0 
 48 50  1  0  0  0  0 
 92101  1  0  0  0  0 
 13  1  1  0  0  0  0 
101102  1  0  0  0  0 
 50 51  1  0  0  0  0 
101103  1  6  0  0  0 
  4  7  1  0  0  0  0 
103104  1  0  0  0  0 
 51 52  1  0  0  0  0 
104105  1  0  0  0  0 
  2  4  1  1  0  0  0 
105106  1  0  0  0  0 
 52 53  1  0  0  0  0 
106107  1  0  0  0  0 
 53 45  1  0  0  0  0 
107108  1  0  0  0  0 
 14 15  1  0  0  0  0 
107109  2  0  0  0  0 
 47 54  1  0  0  0  0 
102110  2  0  0  0  0 
 15 13  1  0  0  0  0 
102111  1  0  0  0  0 
M  END