
  SciTegic05281310212D

 28 29  0  0  0  0            999 V2000
   -4.0473  -24.0416    0.0000 C   0  0
   -4.0484  -24.8690    0.0000 C   0  0
   -3.3336  -25.2819    0.0000 C   0  0
   -3.3354  -23.6289    0.0000 C   0  0
   -2.6200  -24.0380    0.0000 C   0  0
   -2.6193  -24.8648    0.0000 C   0  0
   -1.9040  -25.2758    0.0000 O   0  0
   -1.1889  -24.8610    0.0000 C   0  0
   -1.1937  -24.0311    0.0000 C   0  0  1  0  0  0
   -1.9096  -23.6238    0.0000 O   0  0
   -0.4818  -23.6142    0.0000 C   0  0
    0.2352  -24.0224    0.0000 N   0  0
    0.9472  -23.6055    0.0000 C   0  0
    1.6641  -24.0137    0.0000 C   0  0
    2.3761  -23.5968    0.0000 O   0  0
    3.0930  -24.0050    0.0000 C   0  0
    3.0939  -24.8303    0.0000 C   0  0
    3.8100  -25.2383    0.0000 C   0  0
    4.5230  -24.8214    0.0000 C   0  0
    4.5153  -23.9922    0.0000 C   0  0
    3.7986  -23.5879    0.0000 C   0  0
    2.3808  -25.2451    0.0000 O   0  0
    2.3836  -26.0701    0.0000 C   0  0
    3.7902  -22.7629    0.0000 O   0  0
    4.5005  -22.3432    0.0000 C   0  0
   -3.3317  -26.1069    0.0000 O   0  0
   -4.0452  -26.5210    0.0000 C   0  0
   -0.7417  -22.4958    0.0000 Cl  0  0
  5  6  1  0
 13 14  1  0
  2  3  1  0
 14 15  1  0
  6  7  1  0
 15 16  1  0
  3  6  2  0
 16 17  2  0
  7  8  1  0
 17 18  1  0
 18 19  2  0
  8  9  1  0
 19 20  1  0
  5  4  2  0
 20 21  2  0
 21 16  1  0
  9 10  1  0
 17 22  1  0
 10  5  1  0
 22 23  1  0
  4  1  1  0
 21 24  1  0
  9 11  1  1
 24 25  1  0
  1  2  2  0
  3 26  1  0
 11 12  1  0
 26 27  1  0
 12 13  1  0
M  END