
  SciTegic10301317112D

 41 43  0  0  1  0            999 V2000
    7.9939   -1.9195    0.0000 N   0  0
    7.9939   -1.0945    0.0000 C   0  0
    4.8996    2.1403    0.0000 N   0  3
    6.5418   -2.1495    0.0000 C   0  0
    7.3264   -2.4045    0.0000 C   0  0  2  0  0  0
    4.9726   -1.6397    0.0000 C   0  0
   10.1373   -0.6820    0.0000 C   0  0
    5.9287   -2.7016    0.0000 N   0  0
    9.4228   -1.0945    0.0000 N   0  0
    5.1441   -2.4466    0.0000 C   0  0  1  0  0  0
    8.7084   -0.6820    0.0000 C   0  0  2  0  0  0
    5.5857   -1.0876    0.0000 N   0  0
   11.5662   -0.6820    0.0000 N   0  0
    5.0711    1.3333    0.0000 C   0  0
   12.2807   -1.0945    0.0000 C   0  0
   10.8518   -1.0945    0.0000 C   0  0  1  0  0  0
    5.5127    2.6923    0.0000 O   0  5
    4.1149    2.3952    0.0000 O   0  0
    7.2794   -0.6820    0.0000 O   0  0
    6.3703   -1.3426    0.0000 O   0  0
    4.1880   -1.3847    0.0000 O   0  0
   10.1373    0.1430    0.0000 O   0  0
    4.5310   -2.9987    0.0000 C   0  0
   12.9952   -0.6820    0.0000 O   0  0
    4.4580    0.7813    0.0000 C   0  0
    5.8557    1.0784    0.0000 C   0  0
    5.4142   -0.2807    0.0000 C   0  0
    8.6613   -2.4045    0.0000 C   0  0
    4.6295   -0.0257    0.0000 C   0  0
    6.0272    0.2714    0.0000 C   0  0
    3.7464   -2.7437    0.0000 C   0  0
    7.5814   -3.1891    0.0000 C   0  0
    8.4064   -3.1891    0.0000 C   0  0
    8.7084    0.1430    0.0000 C   0  0
   12.2807   -1.9195    0.0000 C   0  0
   10.8518   -1.9195    0.0000 C   0  0
    3.5749   -1.9367    0.0000 C   0  0
    3.1333   -3.2958    0.0000 C   0  0
    2.3487   -3.0408    0.0000 C   0  0
    2.7902   -1.6818    0.0000 C   0  0
    2.1772   -2.2338    0.0000 C   0  0
  2  1  1  0
  3 14  1  0
  5  4  1  1
  5  1  1  0
  6 10  1  0
  7  9  1  0
  8  4  1  0
  9 11  1  0
 10  8  1  0
 11  2  1  0
 12  6  1  0
 13 16  1  0
 14 26  2  0
 15 13  1  0
 16  7  1  0
 17  3  1  0
 18  3  2  0
 19  2  2  0
 20  4  2  0
 21  6  2  0
 22  7  2  0
 10 23  1  1
 24 15  2  0
 25 29  2  0
 26 30  1  0
 27 12  1  0
 28  1  1  0
 29 27  1  0
 30 27  2  0
 31 23  1  0
 32  5  1  0
 33 28  1  0
 11 34  1  1
 35 15  1  0
 16 36  1  1
 37 31  2  0
 38 31  1  0
 39 38  2  0
 40 37  1  0
 41 39  1  0
 33 32  1  0
 40 41  2  0
 14 25  1  0
M  CHG  2   3   1  17  -1
M  END