
  SciTegic01161211262D

160150  0  0  0  0            999 V2000
   -8.1876    1.6430    0.0000 Na  0  3
   -8.9021   -2.0695    0.0000 Na  0  3
   -7.4732   -3.7195    0.0000 Na  0  3
   -7.4732   -6.6895    0.0000 Na  0  3
   -5.1154   -7.8033    0.0000 Na  0  3
   -2.9720   -1.6158    0.0000 Na  0  3
   -0.8286   -0.1308    0.0000 Na  0  3
    1.3148   -1.6158    0.0000 Na  0  3
    0.6004   -7.8033    0.0000 Na  0  3
    3.4582   -0.1308    0.0000 Na  0  3
    4.1727   -1.6158    0.0000 Na  0  3
    3.4582   -7.8033    0.0000 Na  0  3
    6.7541   -0.5867    0.0000 Na  0  3
    8.5208   -2.8651    0.0000 Na  0  3
    8.9021   -5.8296    0.0000 Na  0  3
    6.2898   -8.3011    0.0000 Na  0  3
   -3.9008   -0.8320    0.0000 O   0  0
   -4.6153   -1.2445    0.0000 C   0  0  1  0  0  0
   -3.6865   -2.6058    0.0000 O   0  0
   -5.3297   -2.4820    0.0000 C   0  0  2  0  0  0
   -5.3297   -3.3070    0.0000 O   0  0
   -6.0442   -2.0695    0.0000 C   0  0  2  0  0  0
   -6.7587   -2.4820    0.0000 O   0  0
   -6.0442   -1.2445    0.0000 C   0  0  2  0  0  0
   -5.3297   -0.8320    0.0000 O   0  0
   -6.7587   -0.8320    0.0000 C   0  0
   -6.7587   -0.0070    0.0000 O   0  0
   -7.4732    0.4055    0.0000 S   0  0
   -7.8857   -0.3090    0.0000 O   0  0
   -7.0607    1.1199    0.0000 O   0  0
   -8.1876    0.8180    0.0000 O   0  5
   -7.4732   -2.0695    0.0000 S   0  0
   -7.8857   -2.7840    0.0000 O   0  0
   -7.0607   -1.3551    0.0000 O   0  0
   -8.1876   -1.6570    0.0000 O   0  5
   -6.0442   -3.7195    0.0000 S   0  0
   -6.4567   -3.0051    0.0000 O   0  0
   -5.6317   -4.4340    0.0000 O   0  0
   -6.7587   -4.1320    0.0000 O   0  5
   -3.6865   -3.6783    0.0000 C   0  0  2  0  0  0
   -2.9720   -4.0908    0.0000 C   0  0  2  0  0  0
   -2.2575   -3.6783    0.0000 O   0  0
   -2.9720   -4.9158    0.0000 C   0  0  2  0  0  0
   -2.2575   -5.3283    0.0000 O   0  0
   -3.6865   -5.3283    0.0000 C   0  0  2  0  0  0
   -3.6865   -6.1533    0.0000 O   0  0
   -4.4009   -4.0908    0.0000 O   0  0
   -5.3297   -5.4520    0.0000 C   0  0
   -6.0442   -5.0395    0.0000 O   0  0
   -6.7587   -5.4520    0.0000 S   0  0
   -7.1712   -4.7376    0.0000 O   0  0
   -6.3462   -6.1665    0.0000 O   0  0
   -7.4732   -5.8645    0.0000 O   0  5
   -4.4009   -6.5658    0.0000 S   0  0
   -3.9884   -7.2803    0.0000 O   0  0
   -4.8134   -5.8513    0.0000 O   0  0
   -5.1154   -6.9783    0.0000 O   0  5
   -2.2575   -2.8533    0.0000 S   0  0
   -3.0825   -2.8533    0.0000 O   0  0
   -1.4325   -2.8533    0.0000 O   0  0
   -2.2575   -2.0283    0.0000 O   0  5
   -0.8286   -5.3283    0.0000 C   0  0  2  0  0  0
   -0.8286   -6.1533    0.0000 O   0  0
   -0.1141   -4.9158    0.0000 C   0  0  2  0  0  0
    0.6004   -5.3283    0.0000 O   0  0
   -0.1141   -4.0908    0.0000 C   0  0  2  0  0  0
    0.6004   -3.6783    0.0000 O   0  0
   -0.8286   -3.6783    0.0000 C   0  0  2  0  0  0
   -1.5431   -4.0908    0.0000 O   0  0
   -0.8286   -2.6058    0.0000 C   0  0
   -0.1141   -2.1933    0.0000 O   0  0
   -0.1141   -1.3683    0.0000 S   0  0
   -0.9391   -1.3683    0.0000 O   0  0
    0.7109   -1.3683    0.0000 O   0  0
   -0.1141   -0.5433    0.0000 O   0  5
    0.6004   -2.8533    0.0000 S   0  0
   -0.2246   -2.8533    0.0000 O   0  0
    1.4254   -2.8533    0.0000 O   0  0
    0.6004   -2.0283    0.0000 O   0  5
   -0.1141   -6.5658    0.0000 S   0  0
    0.2984   -5.8513    0.0000 O   0  0
   -0.5266   -7.2803    0.0000 O   0  0
    0.6004   -6.9783    0.0000 O   0  5
    2.0293   -5.3283    0.0000 C   0  0  2  0  0  0
    2.0293   -6.1533    0.0000 O   0  0
    2.7438   -4.9158    0.0000 C   0  0  2  0  0  0
    3.6726   -5.4520    0.0000 O   0  0
    2.7438   -4.0908    0.0000 C   0  0  2  0  0  0
    3.4582   -3.6783    0.0000 O   0  0
    2.0293   -3.6783    0.0000 C   0  0  2  0  0  0
    1.3148   -4.0908    0.0000 O   0  0
    2.0293   -2.6058    0.0000 C   0  0
    2.7438   -2.1933    0.0000 O   0  0
    2.7438   -1.3683    0.0000 S   0  0
    1.9188   -1.3683    0.0000 O   0  0
    3.5688   -1.3683    0.0000 O   0  0
    2.7438   -0.5433    0.0000 O   0  5
    3.4582   -2.8533    0.0000 S   0  0
    4.2832   -2.8533    0.0000 O   0  0
    2.6332   -2.8533    0.0000 O   0  0
    3.4582   -2.0283    0.0000 O   0  5
    2.7438   -6.5658    0.0000 S   0  0
    3.1563   -5.8513    0.0000 O   0  0
    2.3313   -7.2803    0.0000 O   0  0
    3.4582   -6.9783    0.0000 O   0  5
    5.3124   -5.6155    0.0000 C   0  0  2  0  0  0
    5.1691   -6.4280    0.0000 O   0  0
    6.0876   -5.3334    0.0000 C   0  0  2  0  0  0
    6.7196   -5.8637    0.0000 O   0  0
    6.2309   -4.5209    0.0000 C   0  0  2  0  0  0
    7.0434   -4.3776    0.0000 O   0  0
    5.5989   -3.9906    0.0000 C   0  0  2  0  0  0
    4.8237   -4.2728    0.0000 O   0  0
    5.5989   -3.1656    0.0000 C   0  0
    6.2309   -2.6353    0.0000 O   0  0
    6.0876   -1.8228    0.0000 S   0  0
    6.9071   -1.7270    0.0000 O   0  0
    5.2626   -1.8228    0.0000 O   0  0
    6.0397   -0.9992    0.0000 O   0  5
    7.3255   -3.6024    0.0000 S   0  0
    6.6111   -3.1899    0.0000 O   0  0
    8.0831   -3.9292    0.0000 O   0  0
    7.6958   -2.8651    0.0000 O   0  5
    7.4949   -5.5815    0.0000 S   0  0
    7.2127   -4.8062    0.0000 O   0  0
    7.7770   -6.3567    0.0000 O   0  0
    8.2701   -5.2993    0.0000 O   0  5
    5.8011   -6.9583    0.0000 S   0  0
    6.3314   -6.3263    0.0000 O   0  0
    5.2708   -7.5903    0.0000 O   0  0
    6.4331   -7.4886    0.0000 O   0  5
   -3.9008   -0.0070    0.0000 C   0  0
   -3.1863    0.4055    0.0000 C   0  0
   -3.1863    1.2305    0.0000 C   0  0
   -2.4719    1.6430    0.0000 C   0  0
   -2.4719    2.4680    0.0000 C   0  0
   -1.7574    2.8805    0.0000 C   0  0
   -1.7574    3.7055    0.0000 C   0  0
   -1.0429    4.1180    0.0000 C   0  0
   -1.0429    4.9430    0.0000 N   0  0
   -1.7104    5.4279    0.0000 N   0  0
   -1.4554    6.2125    0.0000 N   0  0
   -0.6304    6.2125    0.0000 C   0  0
   -0.3755    5.4279    0.0000 C   0  0
   -0.1455    6.8799    0.0000 C   0  0
   -0.4811    7.6336    0.0000 C   0  0
    0.0039    8.3011    0.0000 C   0  0
    0.8243    8.2148    0.0000 C   0  0
    1.1599    7.4611    0.0000 C   0  0
    0.6750    6.7937    0.0000 C   0  0
   -1.5431   -4.9158    0.0000 C   0  0  2  0  0  0
   -1.5431   -5.7408    0.0000 H   0  0
    1.3148   -4.9158    0.0000 C   0  0  2  0  0  0
    1.3148   -5.7408    0.0000 H   0  0
    4.6804   -5.0852    0.0000 C   0  0  2  0  0  0
    4.6804   -5.9102    0.0000 H   0  0
   -4.4009   -4.9158    0.0000 C   0  0  2  0  0  0
   -4.9843   -4.3324    0.0000 H   0  0
   -4.6153   -2.0695    0.0000 C   0  0  2  0  0  0
   -3.9008   -1.6570    0.0000 H   0  0
 18 17  1  6
 18159  1  0
159 19  1  0
159 20  1  0
 20 21  1  1
 20 22  1  0
 22 23  1  6
 22 24  1  0
 24 25  1  0
 24 26  1  1
 26 27  1  0
 18 25  1  0
 28 29  2  0
 28 30  2  0
 28 31  1  0
 27 28  1  0
 32 33  2  0
 32 34  2  0
 32 35  1  0
 23 32  1  0
 36 37  2  0
 36 38  2  0
 36 39  1  0
 21 36  1  0
 40 41  1  0
 41 42  1  1
 41 43  1  0
 43 44  1  1
 43 45  1  0
 45 46  1  6
 45157  1  0
157 47  1  0
157 48  1  0
 48 49  1  0
 40 47  1  0
 50 51  2  0
 50 52  2  0
 50 53  1  0
 49 50  1  0
 54 55  2  0
 54 56  2  0
 54 57  1  0
 46 54  1  0
 58 59  2  0
 58 60  2  0
 58 61  1  0
 42 58  1  0
151 62  1  0
 62 63  1  6
 62 64  1  0
 64 65  1  6
 64 66  1  0
 66 67  1  1
 66 68  1  0
 68 69  1  0
 68 70  1  6
 70 71  1  0
151 69  1  0
 72 73  2  0
 72 74  2  0
 72 75  1  0
 71 72  1  0
 76 77  2  0
 76 78  2  0
 76 79  1  0
 67 76  1  0
 80 81  2  0
 80 82  2  0
 80 83  1  0
 63 80  1  0
153 84  1  0
 84 85  1  6
 84 86  1  0
 86 87  1  6
 86 88  1  0
 88 89  1  1
 88 90  1  0
 90 91  1  0
 90 92  1  6
 92 93  1  0
153 91  1  0
 94 95  2  0
 94 96  2  0
 94 97  1  0
 93 94  1  0
 98 99  2  0
 98100  2  0
 98101  1  0
 89 98  1  0
102103  2  0
102104  2  0
102105  1  0
 85102  1  0
155106  1  0
106107  1  6
106108  1  0
108109  1  6
108110  1  0
110111  1  1
110112  1  0
112113  1  0
112114  1  6
114115  1  0
155113  1  0
116117  2  0
116118  2  0
116119  1  0
115116  1  0
120121  2  0
120122  2  0
120123  1  0
111120  1  0
124125  2  0
124126  2  0
124127  1  0
109124  1  0
128129  2  0
128130  2  0
128131  1  0
107128  1  0
155 87  1  0
153 65  1  0
151 44  1  0
 40 19  1  6
132133  1  0
133134  1  0
134135  1  0
135136  1  0
136137  1  0
137138  1  0
138139  1  0
140141  1  0
141142  2  0
142143  1  0
143144  2  0
140144  1  0
145146  1  0
146147  2  0
147148  1  0
148149  2  0
149150  1  0
145150  2  0
143145  1  0
139140  1  0
 17132  1  0
151152  1  6
153154  1  6
155156  1  6
157158  1  6
159160  1  6
M  CHG  8   1   1   2   1   3   1   4   1   5   1   6   1   7   1   8   1
M  CHG  8   9   1  10   1  11   1  12   1  13   1  14   1  15   1  16   1
M  CHG  8  31  -1  35  -1  39  -1  53  -1  57  -1  61  -1  75  -1  79  -1
M  CHG  8  83  -1  97  -1 101  -1 105  -1 119  -1 123  -1 127  -1 131  -1
M  END