
  SciTegic09261415472D

  7  7  0  0  0  0            999 V2000
    7.7669   -4.9131    0.0000 N   0  0
    8.0184   -5.6975    0.0000 N   0  0
    7.3527   -6.1794    0.0000 C   0  0
    6.6868   -5.6975    0.0000 C   0  0
    6.9425   -4.9131    0.0000 C   0  0
    7.3527   -7.0075    0.0000 C   0  0
    6.6354   -7.4216    0.0000 O   0  0
  1  2  1  0
  2  3  2  0
  3  4  1  0
  4  5  2  0
  1  5  1  0
  3  6  1  0
  6  7  1  0
M  END