
  SciTegic01161211262D

 42 43  0  0  0  0            999 V2000
   -3.0155   -9.9521    0.0000 C   0  0
   -3.0107  -10.7771    0.0000 C   0  0  2  0  0  0
   -1.5752   -9.9474    0.0000 C   0  0
   -2.2856  -11.1902    0.0000 C   0  0
   -2.2875  -12.0239    0.0000 C   0  0  1  0  0  0
   -1.5769  -12.4343    0.0000 C   0  0  1  0  0  0
   -1.5771  -13.2676    0.0000 C   0  0  2  0  0  0
   -0.8673  -13.6831    0.0000 C   0  0
   -0.1346  -13.2613    0.0000 C   0  0
   -1.5772  -10.7724    0.0000 O   0  0
   -0.8598   -9.5365    0.0000 C   0  0
   -0.8579   -8.7115    0.0000 C   0  0
   -1.5714   -8.2974    0.0000 C   0  0
   -1.5695   -7.4724    0.0000 O   0  0
   -2.2868   -8.7082    0.0000 C   0  0
   -2.2887   -9.5332    0.0000 C   0  0
   -0.1463   -9.9507    0.0000 N   0  0
    0.5691   -9.5398    0.0000 C   0  0
    1.2802   -9.9521    0.0000 C   0  0
    0.5709   -8.7148    0.0000 O   0  0
    1.2787  -10.7771    0.0000 C   0  0
    1.9954   -9.5410    0.0000 C   0  0
    1.9924  -11.1910    0.0000 C   0  0
    1.9908  -12.0160    0.0000 C   0  0
    1.2756  -12.4271    0.0000 C   0  0  1  0  0  0
    1.2741  -13.2521    0.0000 C   0  0  1  0  0  0
   -0.1335  -12.4363    0.0000 C   0  0
   -0.8677  -12.0146    0.0000 O   0  0
   -2.2927  -13.6779    0.0000 C   0  0
   -3.0023  -12.4356    0.0000 O   0  0
   -3.7164  -12.0223    0.0000 C   0  0
   -3.7228  -11.1938    0.0000 C   0  0
    0.5619  -12.0133    0.0000 O   0  0
    0.5547  -11.1849    0.0000 C   0  0
    1.9878  -13.6660    0.0000 O   0  0
    1.9863  -14.4910    0.0000 C   0  0
    1.2711  -14.9021    0.0000 O   0  0
    2.7000  -14.9047    0.0000 N   0  0
   -3.0004   -8.2941    0.0000 N   0  0
   -3.7158   -8.7049    0.0000 C   0  0
   -4.4293   -8.2907    0.0000 C   0  0
   -5.1447   -8.7016    0.0000 C   0  0
 19 21  2  0
  4  5  1  0
 19 22  1  0
  3 11  1  0
 21 23  1  0
  5  6  1  0
 23 24  2  0
 11 12  2  0
 24 25  1  0
  1 16  1  0
 25 26  1  0
 12 13  1  0
  9 27  1  0
  2  4  1  0
  6 28  1  6
 13 14  2  0
  7 29  1  6
  3 16  1  0
  5 30  1  1
 13 15  1  0
 30 31  1  0
  1  2  1  0
  2 32  1  6
 15 16  2  0
 25 33  1  1
  6  7  1  0
 33 34  1  0
 11 17  1  0
 26 35  1  1
  7  8  1  0
 35 36  1  0
 17 18  1  0
 36 37  2  0
  8  9  2  0
 36 38  1  0
  9 26  1  0
 18 19  1  0
 15 39  1  0
 39 40  1  0
 18 20  2  0
 40 41  1  0
  3 10  2  0
 41 42  2  0
M  END