
  SciTegic12201110432D

 10  9  0  0  0  0            999 V2000
   -0.9577    0.6345    0.0000 P   0  0
   -1.7827    0.6345    0.0000 O   0  0
   -0.9577   -0.1905    0.0000 O   0  0
   -0.9578    1.4595    0.0000 O   0  0
    2.3422   -0.7945    0.0000 O   0  0
    1.1047   -1.5090    0.0000 O   0  0
   -0.1327    0.6345    0.0000 C   0  0
    1.1047   -0.0800    0.0000 C   0  0
    1.5172   -0.7945    0.0000 C   0  0
    0.2798   -0.0800    0.0000 N   0  0
  2  1  2  0
  3  1  1  0
  4  1  1  0
  7  1  1  0
  9  5  1  0
  9  6  2  0
  7 10  1  0
  8  9  1  0
  8 10  1  0
M  END