
  CDK    8/10/10,12:22

 25 26  0  0  0  0  0  0  0  0999 V2000
   16.3412  -22.7134    0.0000 C   0  0  0  0  0  0  0  0  0  0  0  0
   15.6332  -21.4814    0.0000 C   0  0  0  0  0  0  0  0  0  0  0  0
   15.6332  -22.3028    0.0000 C   0  0  0  0  0  0  0  0  0  0  0  0
   17.0540  -22.3028    0.0000 C   0  0  0  0  0  0  0  0  0  0  0  0
   16.3412  -21.0660    0.0000 C   0  0  0  0  0  0  0  0  0  0  0  0
   17.0540  -21.4814    0.0000 N   0  0  0  0  0  0  0  0  0  0  0  0
   14.4649  -22.9204    0.0000 C   0  0  0  0  0  0  0  0  0  0  0  0
   14.9110  -21.0660    0.0000 C   0  0  0  0  0  0  0  0  0  0  0  0
   16.3412  -23.5441    0.0000 C   0  0  0  0  0  0  0  0  0  0  0  0
   14.4296  -23.7400    0.0000 C   0  0  0  0  0  0  0  0  0  0  0  0
   13.7012  -24.1257    0.0000 C   0  0  0  0  0  0  0  0  0  0  0  0
   14.9110  -20.2401    0.0000 O   0  0  0  0  0  0  0  0  0  0  0  0
   15.6332  -23.9501    0.0000 O   0  0  0  0  0  0  0  0  0  0  0  0
   15.2240  -24.4600    0.0000 Cl  0  0  0  0  0  0  0  0  0  0  0  0
   14.1982  -21.4814    0.0000 O   0  0  0  0  0  0  0  0  0  0  0  0
   17.0540  -23.9501    0.0000 O   0  0  0  0  0  0  0  0  0  0  0  0
   13.7617  -22.4833    0.0000 C   0  0  0  0  0  0  0  0  0  0  0  0
   17.7714  -22.7134    0.0000 C   0  0  0  0  0  0  0  0  0  0  0  0
   16.3412  -20.2401    0.0000 C   0  0  0  0  0  0  0  0  0  0  0  0
   13.6719  -24.9540    0.0000 Cl  0  0  0  0  0  0  0  0  0  0  0  0
   13.0321  -22.8598    0.0000 C   0  0  0  0  0  0  0  0  0  0  0  0
   13.0027  -23.6880    0.0000 C   0  0  0  0  0  0  0  0  0  0  0  0
   17.0540  -24.7761    0.0000 C   0  0  0  0  0  0  0  0  0  0  0  0
   16.3412  -25.1915    0.0000 C   0  0  0  0  0  0  0  0  0  0  0  0
   13.4607  -21.0596    0.0000 C   0  0  0  0  0  0  0  0  0  0  0  0
  2  3  1  0  0  0  0 
  3  1  1  0  0  0  0 
  4  1  2  0  0  0  0 
  5  2  2  0  0  0  0 
  6  4  1  0  0  0  0 
  7  3  1  0  0  0  0 
  8  2  1  0  0  0  0 
  9  1  1  0  0  0  0 
 10  7  1  0  0  0  0 
 11 10  2  0  0  0  0 
 12  8  2  0  0  0  0 
 13  9  2  0  0  0  0 
 14 10  1  0  0  0  0 
 15  8  1  0  0  0  0 
 16  9  1  0  0  0  0 
 17  7  2  0  0  0  0 
 18  4  1  0  0  0  0 
 19  5  1  0  0  0  0 
 20 11  1  0  0  0  0 
 21 17  1  0  0  0  0 
 22 21  2  0  0  0  0 
 23 16  1  0  0  0  0 
 24 23  1  0  0  0  0 
  6  5  1  0  0  0  0 
 22 11  1  0  0  0  0 
 15 25  1  0  0  0  0 
M  END