
  SciTegic01161211222D

 16 17  0  0  0  0            999 V2000
   -0.5119    0.8045    0.0000 C   0  0
    0.2026    1.2170    0.0000 O   0  0
    0.9171    0.8045    0.0000 C   0  0
    1.6315    1.2170    0.0000 C   0  0
    2.3460    0.8045    0.0000 C   0  0
    2.3460   -0.0205    0.0000 C   0  0
    1.6315   -0.4330    0.0000 C   0  0
    0.9171   -0.0205    0.0000 C   0  0
    0.2026   -0.4330    0.0000 O   0  0
   -0.5119   -0.0205    0.0000 C   0  0
   -1.2264   -0.4330    0.0000 C   0  0
   -1.3126   -1.2535    0.0000 N   0  0
   -2.1196   -1.4250    0.0000 C   0  0
   -2.5321   -0.7106    0.0000 C   0  0
   -1.9800   -0.0975    0.0000 N   0  0
    4.5853    0.0000    0.0000 Cl  0  0
  1  2  1  0
  2  3  1  0
  3  4  2  0
  4  5  1  0
  5  6  2  0
  6  7  1  0
  7  8  2  0
  3  8  1  0
  8  9  1  0
  9 10  1  0
  1 10  1  0
 10 11  1  0
 11 12  2  0
 12 13  1  0
 13 14  2  0
 14 15  1  0
 11 15  1  0
M  END