
  SciTegic12211613382D

 23 26  0  0  0  0            999 V2000
    0.6426    0.8996    0.0000 N   0  0
    1.9460    0.1469    0.0000 C   0  0
    1.9460   -1.3585    0.0000 N   0  0
    0.6426   -2.0562    0.0000 C   0  0
   -0.6609   -1.3585    0.0000 C   0  0
   -1.9460   -2.0562    0.0000 C   0  0
   -3.2678   -1.3585    0.0000 C   0  0
   -3.2678    0.1469    0.0000 C   0  0
   -1.9460    0.8996    0.0000 C   0  0
   -0.6609    0.1469    0.0000 C   0  0
    3.0843    1.1566    0.0000 C   0  0
    2.4601    2.5335    0.0000 C   0  0
    0.9547    2.3683    0.0000 C   0  0
    0.6426   -3.2562    0.0000 O   0  0
    4.5504    0.8496    0.0000 C   0  0
    5.5519    1.9674    0.0000 N   0  0
   -1.9390   -3.2561    0.0000 Cl  0  0
    7.0205    1.6622    0.0000 C   0  0
    8.0192    2.7814    0.0000 C   0  0
    7.5493    4.2059    0.0000 N   0  0
    6.0807    4.5112    0.0000 C   0  0
    5.0820    3.3920    0.0000 C   0  0
    8.3483    5.1012    0.0000 C   0  0
  1  2  1  0
  2  3  2  0
  3  4  1  0
  4  5  1  0
  5  6  1  0
  6  7  2  0
  7  8  1  0
  8  9  2  0
  9 10  1  0
  1 10  1  0
  5 10  2  0
 11 12  1  0
 12 13  1  0
  1 13  1  0
  2 11  1  0
  4 14  2  0
 15 16  1  0
 11 15  2  0
  6 17  1  0
 16 18  1  0
 16 22  1  0
 18 19  1  0
 19 20  1  0
 20 21  1  0
 21 22  1  0
 20 23  1  0
M  END