
  CDK    9/16/09,10:6

 42 43  0  0  0  0  0  0  0  0999 V2000
   -2.7923   -3.0994    0.0000 C   0  0  0  0  0  0  0  0  0  0  0  0
   -2.7923   -3.9279    0.0000 C   0  0  0  0  0  0  0  0  0  0  0  0
   -2.0761   -4.3420    0.0000 C   0  0  0  0  0  0  0  0  0  0  0  0
   -1.3600   -3.9279    0.0000 C   0  0  0  0  0  0  0  0  0  0  0  0
   -1.3600   -3.0994    0.0000 C   0  0  0  0  0  0  0  0  0  0  0  0
   -2.0761   -2.6853    0.0000 C   0  0  0  0  0  0  0  0  0  0  0  0
   -2.0774   -1.8616    0.0000 O   0  0  0  0  0  0  0  0  0  0  0  0
   -2.0774   -5.1657    0.0000 O   0  0  0  0  0  0  0  0  0  0  0  0
   -3.5048   -2.6917    0.0000 C   0  0  0  0  0  0  0  0  0  0  0  0
   -3.5068   -1.8679    0.0000 C   0  0  0  0  0  0  0  0  0  0  0  0
   -4.2240   -1.4555    0.0000 C   0  0  0  0  0  0  0  0  0  0  0  0
   -2.7963   -1.4520    0.0000 C   0  0  0  0  0  0  0  0  0  0  0  0
   -2.7983   -0.6283    0.0000 C   0  0  0  0  0  0  0  0  0  0  0  0
   -2.0832   -0.2170    0.0000 C   0  0  0  0  0  0  0  0  0  0  0  0
   -3.5108   -0.2205    0.0000 O   0  0  0  0  0  0  0  0  0  0  0  0
   -2.0852    0.6067    0.0000 C   0  0  0  0  0  0  0  0  0  0  0  0
   -1.3747    1.0226    0.0000 C   0  0  0  0  0  0  0  0  0  0  0  0
   -2.8023    1.0192    0.0000 C   0  0  0  0  0  0  0  0  0  0  0  0
   -0.6575    0.6102    0.0000 C   0  0  0  0  0  0  0  0  0  0  0  0
    0.0529    1.0261    0.0000 C   0  0  0  0  0  0  0  0  0  0  0  0
   -0.6555   -0.2136    0.0000 C   0  0  0  0  0  0  0  0  0  0  0  0
    0.8749    1.0285    0.0000 C   0  0  0  0  0  0  0  0  0  0  0  0
    1.5869    0.6143    0.0000 C   0  0  0  0  0  0  0  0  0  0  0  0
    1.0870    1.8237    0.0000 O   0  0  0  0  0  0  0  0  0  0  0  0
   -0.1613    1.8208    0.0000 O   0  0  0  0  0  0  0  0  0  0  0  0
   -0.9571    2.0308    0.0000 C   0  0  0  0  0  0  0  0  0  0  0  0
   -1.1760    2.8300    0.0000 O   0  0  0  0  0  0  0  0  0  0  0  0
   -1.5386    1.4462    0.0000 N   0  0  0  0  0  0  0  0  0  0  0  0
    1.8867    2.0360    0.0000 C   0  0  0  0  0  0  0  0  0  0  0  0
    1.5849   -0.2094    0.0000 C   0  0  0  0  0  0  0  0  0  0  0  0
    0.8677   -0.6172    0.0000 C   0  0  0  0  0  0  0  0  0  0  0  0
    0.8656   -1.4409    0.0000 C   0  0  0  0  0  0  0  0  0  0  0  0
    1.5808   -1.8569    0.0000 C   0  0  0  0  0  0  0  0  0  0  0  0
   -0.6435   -2.6907    0.0000 N   0  0  0  0  0  0  0  0  0  0  0  0
   -0.6426   -1.8669    0.0000 C   0  0  0  0  0  0  0  0  0  0  0  0
   -1.3583   -1.4520    0.0000 O   0  0  0  0  0  0  0  0  0  0  0  0
   -4.2347   -0.6420    0.0000 C   0  0  0  0  0  0  0  0  0  0  0  0
   -3.5180   -4.3464    0.0000 N   0  0  0  0  0  0  0  0  0  0  0  0
   -4.2432   -3.9273    0.0000 C   0  0  0  0  0  0  0  0  0  0  0  0
   -4.9688   -4.3458    0.0000 C   0  0  0  0  0  0  0  0  0  0  0  0
   -1.3576   -0.6355    0.0000 O   0  0  0  0  0  0  0  0  0  0  0  0
   -5.6942   -3.9267    0.0000 C   0  0  0  0  0  0  0  0  0  0  0  0
 19 21  1  0  0  0  0 
  3  4  1  0  0  0  0 
 20 22  1  0  0  0  0 
 10 11  1  1  0  0  0 
 22 23  1  0  0  0  0 
  4  5  2  0  0  0  0 
 22 24  1  1  0  0  0 
 10 12  1  0  0  0  0 
 20 25  1  6  0  0  0 
  5  6  1  0  0  0  0 
 25 26  1  0  0  0  0 
 12 13  1  0  0  0  0 
 26 27  2  0  0  0  0 
 26 28  1  0  0  0  0 
 13 14  1  0  0  0  0 
 24 29  1  0  0  0  0 
  6  7  2  0  0  0  0 
 23 30  2  0  0  0  0 
 13 15  1  6  0  0  0 
 30 31  1  0  0  0  0 
  1  2  2  0  0  0  0 
 31 32  2  0  0  0  0 
 14 16  1  0  0  0  0 
 32 33  1  0  0  0  0 
  3  8  2  0  0  0  0 
  5 34  1  0  0  0  0 
 16 17  1  0  0  0  0 
 34 35  1  0  0  0  0 
  1  6  1  0  0  0  0 
 35 36  2  0  0  0  0 
 35 32  1  0  0  0  0 
 16 18  1  1  0  0  0 
 15 37  1  0  0  0  0 
  1  9  1  0  0  0  0 
  2 38  1  0  0  0  0 
 17 19  2  0  0  0  0 
 38 39  1  0  0  0  0 
  2  3  1  0  0  0  0 
 39 40  1  0  0  0  0 
 19 20  1  0  0  0  0 
 14 41  2  0  0  0  0 
  9 10  1  0  0  0  0 
 40 42  2  0  0  0  0 
M  END