
          11280715502D 1   1.00000     0.00000     0

 38 41  0     1  0            999 V2000
    8.4935   -0.2929    0.0000 C   0  0  0  0  0  0           0  0  0
    8.9133   -1.0058    0.0000 C   0  0  0  0  0  0           0  0  0
    9.7387   -0.9978    0.0000 C   0  0  0  0  0  0           0  0  0
   10.1454   -0.2776    0.0000 C   0  0  0  0  0  0           0  0  0
    9.7206    0.4361    0.0000 C   0  0  0  0  0  0           0  0  0
    8.8965    0.4246    0.0000 C   0  0  0  0  0  0           0  0  0
   10.1233    1.1561    0.0000 C   0  0  0  0  0  0           0  0  0
   10.9482    1.1674    0.0000 N   0  0  3  0  0  0           0  0  0
    9.7011    1.8649    0.0000 O   0  0  0  0  0  0           0  0  0
   11.3691    0.4558    0.0000 C   0  0  1  0  0  0           0  0  0
   12.1904    0.4650    0.0000 C   0  0  0  0  0  0           0  0  0
   12.5970    1.1832    0.0000 N   0  0  3  0  0  0           0  0  0
   12.1760    1.8939    0.0000 C   0  0  0  0  0  0           0  0  0
   11.3484    1.8862    0.0000 C   0  0  0  0  0  0           0  0  0
   10.9644   -0.2632    0.0000 C   0  0  0  0  0  0           0  0  0
   11.3763   -0.9760    0.0000 C   0  0  0  0  0  0           0  0  0
   11.0459   -1.7301    0.0000 C   0  0  0  0  0  0           0  0  0
   11.6579   -2.2808    0.0000 N   0  0  0  0  0  0           0  0  0
   12.1992   -1.0636    0.0000 C   0  0  0  0  0  0           0  0  0
   12.3698   -1.8677    0.0000 C   0  0  0  0  0  0           0  0  0
   13.1500   -2.1204    0.0000 C   0  0  0  0  0  0           0  0  0
   13.7602   -1.5702    0.0000 C   0  0  0  0  0  0           0  0  0
   13.5851   -0.7639    0.0000 C   0  0  0  0  0  0           0  0  0
   12.8051   -0.5149    0.0000 C   0  0  0  0  0  0           0  0  0
   10.1499   -1.7100    0.0000 C   0  0  3  0  0  0           0  0  0
   10.8603   -1.2904    0.0000 F   0  0  0  0  0  0           0  0  0
   10.5659   -2.4224    0.0000 F   0  0  0  0  0  0           0  0  0
    9.4375   -2.1259    0.0000 F   0  0  0  0  0  0           0  0  0
    7.6686   -0.3012    0.0000 C   0  0  3  0  0  0           0  0  0
    7.6715   -1.1268    0.0000 F   0  0  0  0  0  0           0  0  0
    7.6551    0.5233    0.0000 F   0  0  0  0  0  0           0  0  0
    6.8411   -0.3107    0.0000 F   0  0  0  0  0  0           0  0  0
   13.4220    1.1914    0.0000 C   0  0  0  0  0  0           0  0  0
   13.8274    1.9099    0.0000 C   0  0  0  0  0  0           0  0  0
   14.6524    1.9180    0.0000 N   0  0  0  0  0  0           0  0  0
   13.4079    2.6203    0.0000 C   0  0  0  0  0  0           0  0  0
   15.0719    1.2077    0.0000 O   0  0  0  0  0  0           0  0  0
   15.8969    1.2158    0.0000 C   0  0  0  0  0  0           0  0  0
 18 20  1  0     0  0
 19 16  1  0     0  0
  7  9  2  0     0  0
  8 10  1  0     0  0
 19 20  2  0     0  0
  4  5  1  0     0  0
 20 21  1  0     0  0
  2  3  1  0     0  0
 21 22  2  0     0  0
  5  6  2  0     0  0
 22 23  1  0     0  0
  6  1  1  0     0  0
 23 24  2  0     0  0
 24 19  1  0     0  0
  1  2  2  0     0  0
  3 25  1  0     0  0
  8 14  1  0     0  0
 25 26  1  0     0  0
 10 11  1  0     0  0
 25 27  1  0     0  0
 11 12  1  0     0  0
 25 28  1  0     0  0
 12 13  1  0     0  0
  1 29  1  0     0  0
 13 14  1  0     0  0
 29 30  1  0     0  0
  5  7  1  0     0  0
 29 31  1  0     0  0
 10 15  1  1     0  0
 29 32  1  0     0  0
  3  4  2  0     0  0
 12 33  1  0     0  0
 15 16  1  0     0  0
 33 34  1  0     0  0
 16 17  2  0     0  0
 34 35  2  0     0  0
  7  8  1  0     0  0
 34 36  1  0     0  0
 35 37  1  0     0  0
 17 18  1  0     0  0
 37 38  1  0     0  0
M  END