
          11280715352D 1   1.00000     0.00000     0

 31 34  0     0  0            999 V2000
   -0.7333   -1.0792    0.0000 S   0  0  3  0  0  0           0  0  0
   -0.7333   -0.2542    0.0000 N   0  0  0  0  0  0           0  0  0
   -2.1708    1.3958    0.0000 N   0  0  0  0  0  0           0  0  0
   -1.4500    0.9833    0.0000 N   0  0  3  0  0  0           0  0  0
   -1.4500    0.1583    0.0000 C   0  0  0  0  0  0           0  0  0
   -2.1708    2.2208    0.0000 C   0  0  0  0  0  0           0  0  0
   -0.7458    2.2250    0.0000 C   0  0  3  0  0  0           0  0  0
   -0.7458    1.4000    0.0000 C   0  0  0  0  0  0           0  0  0
   -0.7333   -1.9042    0.0000 C   0  0  0  0  0  0           0  0  0
    0.0667   -1.2917    0.0000 O   0  0  0  0  0  0           0  0  0
   -1.4458   -1.4875    0.0000 O   0  0  0  0  0  0           0  0  0
   -2.7500    2.8083    0.0000 C   0  0  0  0  0  0           0  0  0
   -0.1625    2.8083    0.0000 C   0  0  0  0  0  0           0  0  0
   -2.1625   -0.2542    0.0000 N   0  0  0  0  0  0           0  0  0
   -1.4583   -2.3042    0.0000 C   0  0  0  0  0  0           0  0  0
   -0.0333   -2.3125    0.0000 C   0  0  0  0  0  0           0  0  0
   -2.5333    3.6083    0.0000 C   0  0  0  0  0  0           0  0  0
   -3.5458    2.5958    0.0000 C   0  0  0  0  0  0           0  0  0
   -3.9208    3.9708    0.0000 C   0  0  0  0  0  0           0  0  0
   -0.7458   -3.5417    0.0000 C   0  0  0  0  0  0           0  0  0
   -3.1208    4.1792    0.0000 C   0  0  0  0  0  0           0  0  0
   -1.4583   -3.1292    0.0000 C   0  0  0  0  0  0           0  0  0
   -4.1333    3.1708    0.0000 C   0  0  0  0  0  0           0  0  0
   -0.0333   -3.1292    0.0000 C   0  0  0  0  0  0           0  0  0
   -4.5000    4.5542    0.0000 Cl  0  0  0  0  0  0           0  0  0
   -0.7500   -4.3667    0.0000 Cl  0  0  0  0  0  0           0  0  0
   -0.3833    3.6083    0.0000 C   0  0  0  0  0  0           0  0  0
    0.6292    2.5958    0.0000 C   0  0  0  0  0  0           0  0  0
    1.2167    3.1750    0.0000 C   0  0  0  0  0  0           0  0  0
    0.2000    4.1792    0.0000 C   0  0  0  0  0  0           0  0  0
    1.0042    3.9708    0.0000 C   0  0  0  0  0  0           0  0  0
  2  1  1  0     0  0
  3  4  1  0     0  0
  4  5  1  0     0  0
  5  2  1  0     0  0
  6  3  2  0     0  0
  7  8  1  0     0  0
  8  4  1  0     0  0
  9  1  1  0     0  0
 10  1  2  0     0  0
 11  1  2  0     0  0
 12  6  1  0     0  0
 13  7  1  0     0  0
 14  5  2  0     0  0
 15  9  2  0     0  0
 16  9  1  0     0  0
 17 12  2  0     0  0
 18 12  1  0     0  0
 19 23  1  0     0  0
 20 24  1  0     0  0
 21 17  1  0     0  0
 22 15  1  0     0  0
 23 18  2  0     0  0
 24 16  2  0     0  0
 25 19  1  0     0  0
 26 20  1  0     0  0
 27 13  1  0     0  0
 28 13  2  0     0  0
 29 28  1  0     0  0
 30 27  2  0     0  0
 31 29  2  0     0  0
 20 22  2  0     0  0
  6  7  1  0     0  0
 19 21  2  0     0  0
 31 30  1  0     0  0
M  END