
  Mrv0541 04051115152D          

  8  8  0  0  0  0            999 V2000
   -0.5032   -0.5156    0.0000 C   0  0  0  0  0  0  0  0  0  0  0  0
   -0.5032    0.3094    0.0000 C   0  0  0  0  0  0  0  0  0  0  0  0
    0.2113    0.7219    0.0000 C   0  0  0  0  0  0  0  0  0  0  0  0
    0.9258    0.3094    0.0000 C   0  0  0  0  0  0  0  0  0  0  0  0
    0.9258   -0.5156    0.0000 C   0  0  0  0  0  0  0  0  0  0  0  0
    0.2113   -0.9281    0.0000 C   0  0  0  0  0  0  0  0  0  0  0  0
   -1.2176   -0.9281    0.0000 O   0  0  0  0  0  0  0  0  0  0  0  0
    0.2113    1.5469    0.0000 O   0  0  0  0  0  0  0  0  0  0  0  0
  1  2  2  0  0  0  0
  1  6  1  0  0  0  0
  1  7  1  0  0  0  0
  2  3  1  0  0  0  0
  3  4  2  0  0  0  0
  3  8  1  0  0  0  0
  4  5  1  0  0  0  0
  5  6  2  0  0  0  0
M  END