
          11280715122D 1   1.00000     0.00000     0

 29 32  0     0  0            999 V2000
    8.0750   -8.2667    0.0000 C   0  0  0  0  0  0           0  0  0
    7.5417   -9.4917    0.0000 N   0  0  0  0  0  0           0  0  0
    8.2542   -9.0667    0.0000 N   0  0  0  0  0  0           0  0  0
    6.9292   -8.9542    0.0000 N   0  0  0  0  0  0           0  0  0
    4.3417   -4.3500    0.0000 N   0  0  0  0  0  0           0  0  0
    5.0625   -3.9375    0.0000 C   0  0  0  0  0  0           0  0  0
    7.2542   -8.1875    0.0000 N   0  0  0  0  0  0           0  0  0
    8.6250   -7.6417    0.0000 C   0  0  0  0  0  0           0  0  0
    5.0625   -3.1042    0.0000 C   0  0  0  0  0  0           0  0  0
    8.6167   -6.8250    0.0000 C   0  0  0  0  0  0           0  0  0
    3.6292   -3.1125    0.0000 N   0  0  0  0  0  0           0  0  0
    3.6292   -3.9375    0.0000 C   0  0  0  0  0  0           0  0  0
    5.7750   -4.3500    0.0000 N   0  0  0  0  0  0           0  0  0
    7.9125   -6.4125    0.0000 C   0  0  0  0  0  0           0  0  0
    4.3417   -2.6917    0.0000 C   0  0  0  0  0  0           0  0  0
    7.9042   -5.5792    0.0000 C   0  0  0  0  0  0           0  0  0
    7.1917   -6.8250    0.0000 C   0  0  0  0  0  0           0  0  0
    5.7667   -5.1750    0.0000 C   0  0  0  0  0  0           0  0  0
    6.4875   -5.5875    0.0000 C   0  0  0  0  0  0           0  0  0
    7.1917   -5.1750    0.0000 C   0  0  0  0  0  0           0  0  0
    6.4792   -6.4125    0.0000 C   0  0  0  0  0  0           0  0  0
    5.7750   -2.6917    0.0000 C   0  0  0  0  0  0           0  0  0
    9.3292   -8.0625    0.0000 C   0  0  0  0  0  0           0  0  0
    9.3292   -6.4125    0.0000 C   0  0  0  0  0  0           0  0  0
    6.4917   -3.1000    0.0000 O   0  0  0  0  0  0           0  0  0
    2.9167   -4.3500    0.0000 C   0  0  0  0  0  0           0  0  0
    2.1917   -3.9375    0.0000 C   0  0  0  0  0  0           0  0  0
   10.0417   -6.8167    0.0000 C   0  0  0  0  0  0           0  0  0
   10.0500   -7.6500    0.0000 C   0  0  0  0  0  0           0  0  0
  2  3  2  0     0  0
  3  1  1  0     0  0
  4  7  1  0     0  0
  5  6  2  0     0  0
  6 13  1  0     0  0
  7  1  2  0     0  0
  8  1  1  0     0  0
  9  6  1  0     0  0
 10  8  2  0     0  0
 11 15  1  0     0  0
 12  5  1  0     0  0
 13 18  1  0     0  0
 14 10  1  0     0  0
 15  9  2  0     0  0
 16 14  2  0     0  0
 17 14  1  0     0  0
 18 19  1  0     0  0
 19 21  1  0     0  0
 20 16  1  0     0  0
 21 17  2  0     0  0
 22  9  1  0     0  0
 23  8  1  0     0  0
 24 10  1  0     0  0
 25 22  1  0     0  0
 26 12  1  0     0  0
 27 26  1  0     0  0
 28 29  1  0     0  0
 29 23  2  0     0  0
  2  4  1  0     0  0
 24 28  2  0     0  0
 19 20  2  0     0  0
 12 11  2  0     0  0
M  END