
          11280714502D 1   1.00000     0.00000     0

 34 38  0     1  0            999 V2000
    7.1042   -1.8500    0.0000 C   0  0  3  0  0  0           0  0  0
    2.6167   -4.4917    0.0000 N   0  0  3  0  0  0           0  0  0
    7.9042   -2.0667    0.0000 C   0  0  0  0  0  0           0  0  0
    1.9875   -5.0167    0.0000 C   0  0  0  0  0  0           0  0  0
    6.8917   -2.6500    0.0000 C   0  0  0  0  0  0           0  0  0
    7.7417   -1.3542    0.0000 C   0  0  0  0  0  0           0  0  0
    6.3667   -1.4167    0.0000 C   0  0  0  0  0  0           0  0  0
    4.5792   -3.8750    0.0000 N   0  0  3  0  0  0           0  0  0
    6.6250   -1.7542    0.0000 C   0  0  2  0  0  0           0  0  0
    6.0792   -0.6042    0.0000 C   0  0  1  0  0  0           0  0  0
    7.4292   -0.5375    0.0000 C   0  0  2  0  0  0           0  0  0
    3.2542   -4.2667    0.0000 C   0  0  0  0  0  0           0  0  0
    3.0292   -3.7667    0.0000 C   0  0  0  0  0  0           0  0  0
    8.5417   -1.5417    0.0000 O   0  0  0  0  0  0           0  0  0
    1.2167   -4.7375    0.0000 C   0  0  0  0  0  0           0  0  0
    6.7250   -0.1167    0.0000 C   0  0  0  0  0  0           0  0  0
    7.2125   -1.2750    0.0000 C   0  0  0  0  0  0           0  0  0
    5.9375   -1.3542    0.0000 C   0  0  0  0  0  0           0  0  0
    8.0375   -2.8792    0.0000 N   0  0  0  0  0  0           0  0  0
    4.1750   -4.5917    0.0000 C   0  0  0  0  0  0           0  0  0
    3.9042   -4.1000    0.0000 C   0  0  0  0  0  0           0  0  0
    1.0667   -3.9250    0.0000 O   0  0  0  0  0  0           0  0  0
    5.2167   -3.3500    0.0000 C   0  0  0  0  0  0           0  0  0
    2.1292   -5.8250    0.0000 C   0  0  0  0  0  0           0  0  0
    0.5792   -5.2667    0.0000 C   0  0  0  0  0  0           0  0  0
    7.4000   -3.4042    0.0000 C   0  0  0  0  0  0           0  0  0
    1.7042   -3.3917    0.0000 C   0  0  0  0  0  0           0  0  0
    5.9917   -3.6375    0.0000 C   0  0  0  0  0  0           0  0  0
    6.6292   -3.1167    0.0000 C   0  0  0  0  0  0           0  0  0
    1.5042   -6.3542    0.0000 C   0  0  0  0  0  0           0  0  0
    0.7292   -6.0792    0.0000 C   0  0  0  0  0  0           0  0  0
    5.9750   -2.2542    0.0000 H   0  0  0  0  0  0           0  0  0
    5.3875   -0.1667    0.0000 H   0  0  0  0  0  0           0  0  0
    8.0625   -0.0042    0.0000 H   0  0  0  0  0  0           0  0  0
  2 13  1  0     0  0
  3  1  1  0     0  0
  4  2  1  0     0  0
  5  1  1  0     0  0
  6  1  1  0     0  0
  7  1  1  0     0  0
  8 23  1  0     0  0
  9  5  1  0     0  0
 10  7  1  0     0  0
 11  6  1  0     0  0
 12 20  1  0     0  0
 13 21  1  0     0  0
 14  3  2  0     0  0
 15  4  2  0     0  0
 16 10  1  0     0  0
 17 11  1  0     0  0
 18 10  1  0     0  0
 19  3  1  0     0  0
 20  8  1  0     0  0
 21  8  1  0     0  0
 22 15  1  0     0  0
 23 28  1  0     0  0
 24  4  1  0     0  0
 25 15  1  0     0  0
 26 19  1  0     0  0
 27 22  1  0     0  0
 28 29  1  0     0  0
 29 26  1  0     0  0
 30 24  2  0     0  0
 31 30  1  0     0  0
  9 32  1  6     0  0
 10 33  1  1     0  0
 11 34  1  6     0  0
  9 18  1  0     0  0
 11 16  1  0     0  0
  9 17  1  0     0  0
  2 12  1  0     0  0
 25 31  2  0     0  0
M  END