
  SciTegic12011113442D

 77 82  0  0  0  0            999 V2000
    5.4788   -6.9563    0.0000 C   0  0
    4.9819   -7.6730    0.0000 O   0  0
    5.5144   -8.3644    0.0000 C   0  0
    5.2812   -9.1510    0.0000 O   0  0
    6.3330   -8.0730    0.0000 C   0  0
    7.0966   -8.4871    0.0000 C   0  0
    7.8462   -8.0354    0.0000 C   0  0
    7.8164   -7.1524    0.0000 C   0  0
    7.0558   -6.7505    0.0000 C   0  0
    6.3127   -7.2016    0.0000 C   0  0
    6.0490   -6.2947    0.0000 C   0  0
    6.9040   -6.4537    0.0000 C   0  0
    7.4687   -5.7908    0.0000 C   0  0
    7.1753   -4.9724    0.0000 C   0  0
    6.3191   -4.8063    0.0000 C   0  0
    5.7499   -5.4691    0.0000 C   0  0
    4.8941   -5.3131    0.0000 O   0  0
    4.3313   -5.9717    0.0000 C   0  0
    3.4739   -5.8160    0.0000 C   0  0
    2.9105   -6.4788    0.0000 C   0  0
    3.1927   -7.2968    0.0000 C   0  0
    4.0538   -7.4530    0.0000 C   0  0
    4.6228   -6.7942    0.0000 C   0  0
    8.5288   -6.7417    0.0000 C   0  0
    9.2296   -7.1474    0.0000 O   0  0
    9.2504   -5.5090    0.0000 C   0  0  2  0  0  0
    9.9576   -6.7347    0.0000 O   0  0
    9.9576   -5.9167    0.0000 C   0  0
    9.2504   -4.6864    0.0000 C   0  0
    9.9604   -4.2818    0.0000 C   0  0
    9.9604   -3.4633    0.0000 S   0  0
   10.6653   -3.0531    0.0000 C   0  0
   11.3817   -5.9165    0.0000 C   0  0  2  0  0  0
   12.0881   -4.6883    0.0000 O   0  0
   12.0881   -5.5098    0.0000 C   0  0
   11.3817   -6.7367    0.0000 C   0  0
   12.0878   -7.1432    0.0000 C   0  0
   12.0878   -7.9664    0.0000 C   0  0
   12.7981   -8.3769    0.0000 O   0  0
   13.5110   -5.5142    0.0000 C   0  0  2  0  0  0
   14.2233   -5.9246    0.0000 C   0  0
   13.5110   -4.6974    0.0000 C   0  0
   15.6460   -5.9220    0.0000 C   0  0  2  0  0  0
   17.0617   -5.9220    0.0000 O   0  0
   16.3517   -5.5114    0.0000 C   0  0
   15.6460   -6.7387    0.0000 C   0  0  2  0  0  0
   14.9335   -7.1494    0.0000 O   0  0
   16.3517   -7.1494    0.0000 C   0  0
   16.3517   -4.6947    0.0000 N   0  0
   16.9391   -4.1950    0.0000 C   0  0  2  0  0  0
   17.7975   -5.3198    0.0000 O   0  0
   17.6964   -4.5084    0.0000 C   0  0
   16.8807   -3.4008    0.0000 C   0  0
   15.6931   -4.1332    0.0000 C   0  0
   16.0210   -3.3332    0.0000 C   0  0
   18.2409   -3.1913    0.0000 C   0  0  2  0  0  0
   19.6497   -3.0134    0.0000 O   0  0
   18.8927   -2.6999    0.0000 C   0  0
   17.4856   -2.8777    0.0000 C   0  0
   17.3803   -2.0665    0.0000 C   0  0
   16.6271   -1.7531    0.0000 C   0  0
   18.0320   -1.5688    0.0000 C   0  0
   14.2094   -6.7304    0.0000 O   0  0
   14.9310   -7.9837    0.0000 P   0  0
   14.2086   -8.3964    0.0000 O   0  0
   15.3436   -8.7009    0.0000 O   0  0
   15.7652   -7.9785    0.0000 O   0  0
    7.7225   -4.3498    0.0000 O   0  0
    2.1024   -6.3245    0.0000 O   0  0
    8.5379   -5.9229    0.0000 N   0  0
   10.6697   -5.5062    0.0000 N   0  0
   11.3767   -8.3785    0.0000 N   0  0
   12.7971   -5.9255    0.0000 N   0  0
   14.2258   -4.2833    0.0000 O   0  0
   14.9339   -5.5116    0.0000 N   0  0
   18.3470   -4.0083    0.0000 N   0  0
   18.9093   -1.8844    0.0000 O   0  0
 13 14  1  0
 14 15  2  0
 15 16  1  0
 11 16  2  0
 16 17  1  0
 17 18  1  0
 18 19  1  0
 19 20  2  0
 20 21  1  0
 21 22  2  0
 22 23  1  0
  1 23  1  0
 18 23  2  0
  8 24  1  0
 24 25  2  0
 45 49  1  0
 26 28  1  0
 28 27  2  0
 26 29  1  1
 29 30  1  0
 30 31  1  0
 31 32  1  0
 33 35  1  0
 35 34  2  0
 33 36  1  6
 36 37  1  0
 37 38  1  0
 38 39  2  0
 40 41  1  0
 41 63  2  0
 40 42  1  1
 43 45  1  6
 45 44  2  0
 43 46  1  0
 46 47  1  0
 46 48  1  1
 49 50  1  0
 50 52  1  1
 52 51  2  0
 50 53  1  0
 54 55  1  0
 55 53  1  0
 54 49  1  0
 56 58  1  0
 58 57  2  0
 56 59  1  1
 59 60  1  0
 60 61  1  0
 60 62  1  0
  1  2  1  0
 47 64  1  0
  2  3  1  0
 64 65  2  0
  3  4  2  0
 64 66  1  0
  3  5  1  0
 64 67  1  0
  5  6  1  0
  6  7  2  0
  7  8  1  0
  8  9  2  0
  9 10  1  0
  5 10  2  0
  1 10  1  0
  1 11  1  0
 11 12  1  0
 12 13  2  0
 20 69  1  0
 14 68  1  0
 24 70  1  0
 70 26  1  0
 28 71  1  0
 71 33  1  0
 38 72  1  0
 35 73  1  0
 73 40  1  0
 42 74  1  0
 41 75  1  0
 75 43  1  0
 58 77  1  0
 52 76  1  0
 76 56  1  0
M  END