
  Mrv0541 04051115152D          

 32 35  0  0  0  0            999 V2000
    2.6556   -4.5653    0.0000 C   0  0  0  0  0  0  0  0  0  0  0  0
    3.2368   -3.2599    0.0000 N   0  0  0  0  0  0  0  0  0  0  0  0
    0.8237   -1.0872    0.0000 O   0  0  0  0  0  0  0  0  0  0  0  0
    2.5693   -3.7449    0.0000 C   0  0  2  0  0  0  0  0  0  0  0  0
    1.6441   -2.6023    0.0000 N   0  0  0  0  0  0  0  0  0  0  0  0
   -1.1959    0.2635    0.0000 O   0  0  0  0  0  0  0  0  0  0  0  0
    1.8157   -3.4093    0.0000 C   0  0  0  0  0  0  0  0  0  0  0  0
   -0.4138   -1.8016    0.0000 N   0  0  0  0  0  0  0  0  0  0  0  0
    0.1210    2.0043    0.0000 O   0  0  0  0  0  0  0  0  0  0  0  0
    0.8237   -2.5161    0.0000 C   0  0  0  0  0  0  0  0  0  0  0  0
    0.1631   -0.1780    0.0000 N   0  0  0  0  0  0  0  0  0  0  0  0
   -0.9409    1.0481    0.0000 O   0  0  0  0  0  0  0  0  0  0  0  0
    0.4112   -1.8016    0.0000 C   0  0  0  0  0  0  0  0  0  0  0  0
    1.4800    2.8976    0.0000 N   0  0  0  0  0  0  0  0  0  0  0  0
    1.1012   -3.8218    0.0000 O   0  0  0  0  0  0  0  0  0  0  0  0
   -0.8988   -2.4691    0.0000 C   0  0  0  0  0  0  0  0  0  0  0  0
   -1.6834   -2.2141    0.0000 C   0  0  0  0  0  0  0  0  0  0  0  0
   -1.6834   -1.3891    0.0000 C   0  0  0  0  0  0  0  0  0  0  0  0
   -0.8988   -1.1342    0.0000 C   0  0  1  0  0  0  0  0  0  0  0  0
   -0.6438   -0.3496    0.0000 C   0  0  0  0  0  0  0  0  0  0  0  0
    0.4181    0.6066    0.0000 C   0  0  1  0  0  0  0  0  0  0  0  0
    1.2251    0.7781    0.0000 C   0  0  0  0  0  0  0  0  0  0  0  0
    1.4800    1.5627    0.0000 C   0  0  0  0  0  0  0  0  0  0  0  0
    0.9951    2.2302    0.0000 C   0  0  0  0  0  0  0  0  0  0  0  0
    2.2646    2.6427    0.0000 C   0  0  0  0  0  0  0  0  0  0  0  0
    2.9791    3.0552    0.0000 C   0  0  0  0  0  0  0  0  0  0  0  0
    3.6936    2.6427    0.0000 C   0  0  0  0  0  0  0  0  0  0  0  0
    3.6936    1.8177    0.0000 C   0  0  0  0  0  0  0  0  0  0  0  0
    2.9791    1.4052    0.0000 C   0  0  0  0  0  0  0  0  0  0  0  0
    2.2646    1.8177    0.0000 C   0  0  0  0  0  0  0  0  0  0  0  0
   -0.1339    1.2197    0.0000 C   0  0  0  0  0  0  0  0  0  0  0  0
    0.4881   -3.2698    0.0000 C   0  0  0  0  0  0  0  0  0  0  0  0
  1  4  1  0  0  0  0
  4  2  1  1  0  0  0
 13  3  2  0  0  0  0
  4  7  1  0  0  0  0
 10  5  1  0  0  0  0
  7  5  2  0  0  0  0
 20  6  2  0  0  0  0
  7 15  1  0  0  0  0
 19  8  1  0  0  0  0
 16  8  1  0  0  0  0
 13  8  1  0  0  0  0
 31  9  1  0  0  0  0
 10 13  1  0  0  0  0
 32 10  2  0  0  0  0
 21 11  1  6  0  0  0
 20 11  1  0  0  0  0
 31 12  2  0  0  0  0
 24 14  1  0  0  0  0
 25 14  1  0  0  0  0
 32 15  1  0  0  0  0
 16 17  1  0  0  0  0
 17 18  1  0  0  0  0
 18 19  1  0  0  0  0
 19 20  1  1  0  0  0
 21 31  1  0  0  0  0
 21 22  1  0  0  0  0
 22 23  1  0  0  0  0
 23 24  2  0  0  0  0
 23 30  1  0  0  0  0
 25 26  2  0  0  0  0
 25 30  1  0  0  0  0
 26 27  1  0  0  0  0
 27 28  2  0  0  0  0
 28 29  1  0  0  0  0
 29 30  2  0  0  0  0
M  END