
          05080814032D 1   1.00000     0.00000     0

 30 34  0     1  0            999 V2000
   12.0700   -4.5898    0.0000 C   0  0  0  0  0  0           0  0  0
   12.0700   -5.4189    0.0000 C   0  0  0  0  0  0           0  0  0
   12.7841   -5.8312    0.0000 N   0  0  3  0  0  0           0  0  0
   13.5027   -5.4189    0.0000 C   0  0  0  0  0  0           0  0  0
   13.5027   -4.5898    0.0000 C   0  0  0  0  0  0           0  0  0
   12.7841   -4.1729    0.0000 C   0  0  0  0  0  0           0  0  0
   12.7828   -6.6557    0.0000 C   0  0  0  0  0  0           0  0  0
   13.4963   -7.0690    0.0000 C   0  0  0  0  0  0           0  0  0
   13.4952   -7.8935    0.0000 C   0  0  0  0  0  0           0  0  0
   14.2087   -8.3067    0.0000 O   0  0  0  0  0  0           0  0  0
   14.9233   -7.8955    0.0000 C   0  0  0  0  0  0           0  0  0
   15.6342   -8.3099    0.0000 C   0  0  0  0  0  0           0  0  0
   15.6314   -6.6609    0.0000 C   0  0  0  0  0  0           0  0  0
   14.9202   -7.0738    0.0000 C   0  0  0  0  0  0           0  0  0
   16.3499   -7.0740    0.0000 C   0  0  0  0  0  0           0  0  0
   16.3483   -7.9016    0.0000 C   0  0  0  0  0  0           0  0  0
   17.7801   -7.0768    0.0000 C   0  0  0  0  0  0           0  0  0
   17.0635   -6.6592    0.0000 C   0  0  1  0  0  0           0  0  0
   17.7784   -7.9045    0.0000 N   0  0  3  0  0  0           0  0  0
   17.0601   -8.3101    0.0000 C   0  0  2  0  0  0           0  0  0
   17.2239   -9.1187    0.0000 C   0  0  0  0  0  0           0  0  0
   18.0436   -9.2128    0.0000 C   0  0  0  0  0  0           0  0  0
   18.3863   -8.4623    0.0000 C   0  0  0  0  0  0           0  0  0
   17.0641   -5.8347    0.0000 C   0  0  0  0  0  0           0  0  0
   16.3438   -8.7170    0.0000 H   0  0  0  0  0  0           0  0  0
   17.7783   -5.4273    0.0000 N   0  0  0  0  0  0           0  0  0
   17.7792   -4.6035    0.0000 C   0  0  0  0  0  0           0  0  0
   17.0648   -4.1901    0.0000 C   0  0  0  0  0  0           0  0  0
   16.3482   -4.6063    0.0000 C   0  0  0  0  0  0           0  0  0
   16.3508   -5.4287    0.0000 C   0  0  0  0  0  0           0  0  0
 14 11  1  0     0  0
 15 16  2  0     0  0
  3  7  1  0     0  0
  1  2  1  0     0  0
  7  8  1  0     0  0
  1  6  1  0     0  0
 15 18  1  0     0  0
 16 20  1  0     0  0
 19 17  1  0     0  0
 17 18  1  0     0  0
 19 20  1  0     0  0
  8  9  1  0     0  0
  2  3  1  0     0  0
  9 10  1  0     0  0
  3  4  1  0     0  0
 10 11  1  0     0  0
 20 21  1  0     0  0
 21 22  1  0     0  0
 22 23  1  0     0  0
 23 19  1  0     0  0
  4  5  1  0     0  0
 18 24  1  6     0  0
 11 12  2  0     0  0
 20 25  1  1     0  0
 12 16  1  0     0  0
 24 26  2  0     0  0
  5  6  1  0     0  0
 26 27  1  0     0  0
 15 13  1  0     0  0
 27 28  2  0     0  0
 28 29  1  0     0  0
 13 14  2  0     0  0
 29 30  2  0     0  0
 30 24  1  0     0  0
M  END