
  SciTegic10121214022D

 20 19  0  0  0  0            999 V2000
    3.9458  -10.3292    0.0000 C   0  0  2  0  0  0
    3.9458  -11.1542    0.0000 C   0  0  2  0  0  0
    4.6579  -11.5625    0.0000 C   0  0  1  0  0  0
    5.3699  -11.1542    0.0000 C   0  0  2  0  0  0
    5.3699  -10.3292    0.0000 C   0  0
    4.6579   -9.9125    0.0000 N   0  0
    6.0837  -11.5677    0.0000 N   0  0
    4.6579  -12.3875    0.0000 O   0  0
    3.2320  -11.5677    0.0000 O   0  0
    3.2302   -9.9188    0.0000 C   0  0
    3.2277   -9.0938    0.0000 O   0  0
    6.7988  -11.1562    0.0000 C   0  0
    7.5127  -11.5698    0.0000 C   0  0
    6.8000  -10.3312    0.0000 O   0  0
    3.9434  -12.8000    0.0000 C   0  0  1  0  0  0
    3.9434  -13.6250    0.0000 C   0  0
    3.2289  -12.3875    0.0000 C   0  0
    3.2289  -14.0375    0.0000 O   0  0
    4.6579  -14.0375    0.0000 O   0  0
    9.6000   -9.5625    0.0000 Cl  0  0
  2  3  1  0
  1 10  1  1
  3  4  1  0
 10 11  1  0
  4  5  1  0
  7 12  1  0
  5  6  1  0
 12 13  1  0
 12 14  2  0
  4  7  1  6
  8 15  1  0
  1  2  1  0
 15 16  1  0
  3  8  1  1
 15 17  1  1
  1  6  1  0
 16 18  2  0
  2  9  1  6
 16 19  1  0
M  END