
  SciTegic11201309402D

 48 49  0  0  0  0            999 V2000
    8.7377   -6.1097    0.0000 C   0  0
    9.4124   -5.6349    0.0000 N   0  0
    4.4729   -6.4970    0.0000 C   0  0
    2.3031   -6.2763    0.0000 C   0  0
    3.0528   -6.6262    0.0000 N   0  0
    5.1476   -6.0222    0.0000 N   0  0
    3.7275   -6.1514    0.0000 C   0  0  1  0  0  0
    7.9880   -5.7641    0.0000 C   0  0  1  0  0  0
   10.1620   -5.9765    0.0000 C   0  0  2  0  0  0
    5.4975   -4.1273    0.0000 N   0  0
    7.3133   -6.2388    0.0000 C   0  0
    1.5160   -6.5512    0.0000 C   0  0  1  0  0  0
   10.8367   -5.5017    0.0000 C   0  0
    5.8973   -6.3638    0.0000 C   0  0  2  0  0  0
    1.5160   -7.3758    0.0000 N   0  0
    4.3022   -4.7395    0.0000 C   0  0
    3.7233   -5.3268    0.0000 C   0  0
    4.1731   -3.9232    0.0000 N   0  0
    4.9019   -3.5401    0.0000 C   0  0
    2.2282   -7.7881    0.0000 C   0  0
    6.5720   -5.8890    0.0000 C   0  0  1  0  0  0
    5.1226   -4.8645    0.0000 C   0  0
    8.8127   -6.9260    0.0000 O   0  0
    4.5479   -7.3133    0.0000 O   0  0
    2.3156   -5.5267    0.0000 O   0  0
    0.8871   -6.0139    0.0000 C   0  0
   10.7618   -4.6853    0.0000 O   0  0
    5.9723   -7.1884    0.0000 C   0  0
    2.2282   -8.6127    0.0000 O   0  0
   11.5864   -5.8515    0.0000 N   0  0
    7.9131   -4.9394    0.0000 C   0  0
   10.2370   -6.8011    0.0000 C   0  0  2  0  0  0
    0.1666   -6.4263    0.0000 C   0  0
    6.4970   -5.0727    0.0000 O   0  0
    6.7136   -7.5340    0.0000 C   0  0
    2.6405   -7.0760    0.0000 C   0  0
    9.5623   -7.2759    0.0000 C   0  0
    7.1717   -4.5896    0.0000 C   0  0
    8.5878   -4.4647    0.0000 C   0  0
   10.9867   -7.1467    0.0000 C   0  0
    0.1666   -7.2592    0.0000 C   0  0
   -0.5497   -6.0139    0.0000 C   0  0
    7.3883   -7.0593    0.0000 C   0  0
    6.7886   -8.3504    0.0000 C   0  0
    9.5581   -8.1005    0.0000 C   0  0
   -0.5497   -7.6757    0.0000 C   0  0
   -1.2744   -6.4263    0.0000 C   0  0
   -1.2744   -7.2592    0.0000 C   0  0
  2  1  1  0
  3  6  1  0
  4  5  1  0
  7  5  1  1
 14  6  1  6
  7  3  1  0
  8  1  1  0
  9  2  1  6
 10 22  1  0
  8 11  1  1
 12  4  1  0
 13  9  1  0
 14 21  1  0
 12 15  1  1
 16 17  1  0
  7 17  1  0
 18 16  1  0
 19 18  2  0
 20 15  1  0
 21 11  1  0
 22 16  2  0
 23  1  2  0
 24  3  2  0
 25  4  2  0
 12 26  1  0
 27 13  2  0
 14 28  1  0
 29 20  2  0
 30 13  1  0
  8 31  1  0
  9 32  1  0
 33 26  1  0
 21 34  1  1
 35 28  1  0
 36 20  1  0
 37 32  1  0
 38 31  1  0
 39 31  1  0
 32 40  1  1
 41 33  1  0
 42 33  2  0
 43 35  1  0
 44 35  1  0
 45 37  1  0
 46 41  2  0
 47 42  1  0
 48 47  2  0
 10 19  1  0
 46 48  1  0
M  END