
  CDK    9/16/09,9:50

 27 29  0  0  0  0  0  0  0  0999 V2000
   13.1542  -17.1750    0.0000 C   0  0  0  0  0  0  0  0  0  0  0  0
   13.1542  -18.0042    0.0000 C   0  0  0  0  0  0  0  0  0  0  0  0
   13.8704  -18.4125    0.0000 C   0  0  0  0  0  0  0  0  0  0  0  0
   14.5824  -18.0042    0.0000 C   0  0  0  0  0  0  0  0  0  0  0  0
   14.5824  -17.1750    0.0000 C   0  0  0  0  0  0  0  0  0  0  0  0
   13.8704  -16.7542    0.0000 O   0  0  0  0  0  0  0  0  0  0  0  0
   15.3022  -16.7604    0.0000 S   0  0  0  0  0  0  0  0  0  0  0  0
   13.8704  -19.2417    0.0000 N   0  0  0  0  0  0  0  0  0  0  0  0
   12.4361  -18.4177    0.0000 O   0  0  0  0  0  0  0  0  0  0  0  0
   12.4343  -16.7604    0.0000 C   0  0  0  0  0  0  0  0  0  0  0  0
   16.0196  -17.1792    0.0000 C   0  0  0  0  0  0  0  0  0  0  0  0
   15.3004  -18.4177    0.0000 O   0  0  0  0  0  0  0  0  0  0  0  0
   11.7203  -17.1737    0.0000 O   0  0  0  0  0  0  0  0  0  0  0  0
   13.2056  -19.7303    0.0000 N   0  0  0  0  0  0  0  0  0  0  0  0
   13.4618  -20.5189    0.0000 N   0  0  0  0  0  0  0  0  0  0  0  0
   14.2910  -20.5189    0.0000 C   0  0  0  0  0  0  0  0  0  0  0  0
   14.5471  -19.7303    0.0000 C   0  0  0  0  0  0  0  0  0  0  0  0
   14.6958  -21.2292    0.0000 C   0  0  0  0  0  0  0  0  0  0  0  0
   14.2794  -21.9413    0.0000 N   0  0  0  0  0  0  0  0  0  0  0  0
   15.5208  -21.2338    0.0000 O   0  0  0  0  0  0  0  0  0  0  0  0
   13.4544  -21.9367    0.0000 C   0  0  0  0  0  0  0  0  0  0  0  0
   13.0379  -22.6489    0.0000 C   0  0  0  0  0  0  0  0  0  0  0  0
   12.2149  -22.6411    0.0000 C   0  0  0  0  0  0  0  0  0  0  0  0
   11.7985  -23.3524    0.0000 C   0  0  0  0  0  0  0  0  0  0  0  0
   12.2071  -24.0702    0.0000 C   0  0  0  0  0  0  0  0  0  0  0  0
   13.0363  -24.0722    0.0000 C   0  0  0  0  0  0  0  0  0  0  0  0
   13.4490  -23.3602    0.0000 C   0  0  0  0  0  0  0  0  0  0  0  0
  8 14  1  0  0  0  0 
  5  7  1  1  0  0  0 
  1  2  1  0  0  0  0 
  3  8  1  1  0  0  0 
 14 15  2  0  0  0  0 
 15 16  1  0  0  0  0 
 16 17  2  0  0  0  0 
 17  8  1  0  0  0  0 
  1  6  1  0  0  0  0 
 16 18  1  0  0  0  0 
  2  9  1  1  0  0  0 
 18 19  1  0  0  0  0 
  2  3  1  0  0  0  0 
 18 20  2  0  0  0  0 
  1 10  1  1  0  0  0 
 19 21  1  0  0  0  0 
  3  4  1  0  0  0  0 
 21 22  1  0  0  0  0 
  7 11  1  0  0  0  0 
 22 23  2  0  0  0  0 
  4  5  1  0  0  0  0 
 23 24  1  0  0  0  0 
  4 12  1  6  0  0  0 
 24 25  2  0  0  0  0 
  5  6  1  0  0  0  0 
 25 26  1  0  0  0  0 
 10 13  1  0  0  0  0 
 26 27  2  0  0  0  0 
 27 22  1  0  0  0  0 
M  END