
  SciTegic01311317052D

 24 27  0  0  0  0            999 V2000
    5.8606   -4.9757    0.0000 N   0  0
    5.8606   -4.1492    0.0000 C   0  0
    6.5368   -5.4598    0.0000 C   0  0
    7.6388   -6.6787    0.0000 C   0  0
    8.3067   -7.1629    0.0000 N   0  0
    7.8892   -5.8898    0.0000 C   0  0
    6.2780   -6.2404    0.0000 C   0  0
    7.3382   -5.2887    0.0000 C   0  0
    6.8290   -6.8540    0.0000 C   0  0
    5.1385   -3.7359    0.0000 N   0  0
    8.9703   -6.6745    0.0000 C   0  0
    8.7157   -5.8898    0.0000 C   0  0
    5.2011   -5.4640    0.0000 C   0  0
    4.4247   -4.1575    0.0000 C   0  0
    6.5743   -3.7359    0.0000 O   0  0
    3.7109   -5.4014    0.0000 N   0  0
    5.4598   -6.2530    0.0000 C   0  0
    4.4247   -4.9882    0.0000 C   0  0
    3.7109   -3.7442    0.0000 C   0  0
    2.9971   -4.1617    0.0000 C   0  0
    8.3150   -7.9894    0.0000 C   0  0
    2.9971   -4.9882    0.0000 C   0  0
    7.6054   -8.4068    0.0000 C   0  0
    7.6054   -9.2333    0.0000 C   0  0
  2  1  1  0
  3  1  1  0
  4  6  1  0
  5  4  1  0
  6  8  2  0
  7  3  2  0
  8  3  1  0
  9  7  1  0
 10  2  1  0
 11 12  2  0
 12  6  1  0
 13  1  1  0
 14 10  1  0
 15  2  2  0
 16 18  1  0
 17 13  1  0
 18 14  2  0
 19 14  1  0
 20 19  2  0
 21  5  1  0
 22 20  1  0
 23 21  1  0
 24 23  1  0
 17  7  1  0
  9  4  2  0
  5 11  1  0
 22 16  2  0
M  END