
  SciTegic09261414462D

 18 19  0  0  0  0            999 V2000
   35.1000  -13.6579    0.0000 N   0  0
   35.0850  -14.4762    0.0000 C   0  0
   34.3695  -14.8735    0.0000 N   0  0
   34.3566  -15.6882    0.0000 C   0  0
   35.0571  -16.1091    0.0000 C   0  0
   35.7704  -15.7153    0.0000 C   0  0
   35.7854  -14.8971    0.0000 N   0  0
   36.4709  -16.1362    0.0000 N   0  0
   36.5394  -16.9464    0.0000 C   0  0
   37.3382  -17.1341    0.0000 C   0  0  1  0  0  0
   37.7591  -16.4336    0.0000 C   0  0
   37.2205  -15.8129    0.0000 C   0  0
   37.6559  -17.8851    0.0000 N   0  0
   38.4686  -17.9834    0.0000 C   0  0
   33.6412  -16.0856    0.0000 C   0  0
   32.9412  -15.6633    0.0000 C   0  0
   33.6312  -16.9034    0.0000 C   0  0
   32.9312  -16.4883    0.0000 C   0  0
  2  3  1  0
  3  4  2  0
  4  5  1  0
  5  6  2  0
  6  7  1  0
  2  7  2  0
  1  2  1  0
  8  9  1  0
  9 10  1  0
 10 11  1  0
 11 12  1  0
  8 12  1  0
 13 14  1  0
 10 13  1  1
  6  8  1  0
  4 15  1  0
 15 16  1  0
 15 17  1  0
 15 18  1  0
M  END