
          05080814032D 1   1.00000     0.00000     0

 30 34  0     1  0            999 V2000
   -5.4605   -5.0573    0.0000 C   0  0  0  0  0  0           0  0  0
   -5.4605   -5.8865    0.0000 C   0  0  0  0  0  0           0  0  0
   -4.7463   -6.2988    0.0000 N   0  0  3  0  0  0           0  0  0
   -4.0277   -5.8865    0.0000 C   0  0  0  0  0  0           0  0  0
   -4.0277   -5.0573    0.0000 C   0  0  0  0  0  0           0  0  0
   -4.7463   -4.6404    0.0000 C   0  0  0  0  0  0           0  0  0
   -4.7475   -7.1234    0.0000 C   0  0  0  0  0  0           0  0  0
   -4.0340   -7.5366    0.0000 C   0  0  0  0  0  0           0  0  0
   -4.0351   -8.3612    0.0000 C   0  0  0  0  0  0           0  0  0
   -3.3216   -8.7745    0.0000 O   0  0  0  0  0  0           0  0  0
   -2.6069   -8.3632    0.0000 C   0  0  0  0  0  0           0  0  0
   -1.8961   -8.7777    0.0000 C   0  0  0  0  0  0           0  0  0
   -1.8988   -7.1285    0.0000 C   0  0  0  0  0  0           0  0  0
   -2.6100   -7.5415    0.0000 C   0  0  0  0  0  0           0  0  0
   -1.1802   -7.5417    0.0000 C   0  0  0  0  0  0           0  0  0
   -1.1819   -8.3693    0.0000 C   0  0  0  0  0  0           0  0  0
    0.2500   -7.5444    0.0000 C   0  0  0  0  0  0           0  0  0
   -0.4666   -7.1269    0.0000 C   0  0  1  0  0  0           0  0  0
    0.2484   -8.3722    0.0000 N   0  0  3  0  0  0           0  0  0
   -0.4700   -8.7779    0.0000 C   0  0  2  0  0  0           0  0  0
   -0.3062   -9.5865    0.0000 C   0  0  0  0  0  0           0  0  0
    0.5135   -9.6806    0.0000 C   0  0  0  0  0  0           0  0  0
    0.8561   -8.9300    0.0000 C   0  0  0  0  0  0           0  0  0
   -0.4662   -6.3023    0.0000 C   0  0  0  0  0  0           0  0  0
   -1.1865   -9.1848    0.0000 H   0  0  0  0  0  0           0  0  0
    0.2482   -5.8949    0.0000 C   0  0  0  0  0  0           0  0  0
    0.2490   -5.0711    0.0000 N   0  0  0  0  0  0           0  0  0
   -0.4654   -4.6576    0.0000 C   0  0  0  0  0  0           0  0  0
   -1.1821   -5.0738    0.0000 C   0  0  0  0  0  0           0  0  0
   -1.1793   -5.8963    0.0000 C   0  0  0  0  0  0           0  0  0
 14 11  1  0     0  0
 15 16  2  0     0  0
  3  7  1  0     0  0
  1  2  1  0     0  0
  7  8  1  0     0  0
  1  6  1  0     0  0
 15 18  1  0     0  0
 16 20  1  0     0  0
 19 17  1  0     0  0
 17 18  1  0     0  0
 19 20  1  0     0  0
  8  9  1  0     0  0
  2  3  1  0     0  0
  9 10  1  0     0  0
  3  4  1  0     0  0
 10 11  1  0     0  0
 20 21  1  0     0  0
 21 22  1  0     0  0
 22 23  1  0     0  0
 23 19  1  0     0  0
  4  5  1  0     0  0
 18 24  1  6     0  0
 11 12  2  0     0  0
 20 25  1  1     0  0
 12 16  1  0     0  0
 24 26  2  0     0  0
  5  6  1  0     0  0
 26 27  1  0     0  0
 15 13  1  0     0  0
 27 28  2  0     0  0
 28 29  1  0     0  0
 13 14  2  0     0  0
 29 30  2  0     0  0
 30 24  1  0     0  0
M  END