
          11280715342D 1   1.00000     0.00000     0

 31 34  0     0  0            999 V2000
   -1.0750   -3.3042    0.0000 C   0  0  0  0  0  0           0  0  0
   -1.7875   -2.8875    0.0000 C   0  0  0  0  0  0           0  0  0
   -1.0750   -4.1250    0.0000 C   0  0  0  0  0  0           0  0  0
   -2.4958   -3.3042    0.0000 C   0  0  0  0  0  0           0  0  0
    1.0542   -2.8792    0.0000 C   0  0  0  0  0  0           0  0  0
    1.7667   -2.4667    0.0000 C   0  0  0  0  0  0           0  0  0
   -1.7875   -4.5375    0.0000 C   0  0  3  0  0  0           0  0  0
    4.6042   -0.7792    0.0000 C   0  0  0  0  0  0           0  0  0
   -1.7875   -2.0625    0.0000 C   0  0  0  0  0  0           0  0  0
   -0.3625   -4.5375    0.0000 C   0  0  0  0  0  0           0  0  0
   -0.3708   -2.8917    0.0000 C   0  0  0  0  0  0           0  0  0
   -2.4958   -4.1292    0.0000 C   0  0  0  0  0  0           0  0  0
    3.8917   -1.2042    0.0000 C   0  0  0  0  0  0           0  0  0
    0.3417   -3.3000    0.0000 C   0  0  0  0  0  0           0  0  0
    4.5917    0.0458    0.0000 O   0  0  0  0  0  0           0  0  0
    2.4792   -2.0417    0.0000 C   0  0  0  0  0  0           0  0  0
   -1.0708   -1.6500    0.0000 C   0  0  0  0  0  0           0  0  0
   -2.4958   -1.6500    0.0000 C   0  0  0  0  0  0           0  0  0
    3.1750   -0.8042    0.0000 C   0  0  0  0  0  0           0  0  0
    3.9042   -2.0292    0.0000 C   0  0  0  0  0  0           0  0  0
    0.3500   -4.1250    0.0000 C   0  0  0  0  0  0           0  0  0
    5.3250   -1.1875    0.0000 O   0  0  0  0  0  0           0  0  0
   -1.7833   -0.4125    0.0000 C   0  0  0  0  0  0           0  0  0
    2.4667   -1.2250    0.0000 C   0  0  0  0  0  0           0  0  0
    3.1917   -2.4542    0.0000 C   0  0  0  0  0  0           0  0  0
   -2.5000   -0.8292    0.0000 C   0  0  0  0  0  0           0  0  0
   -1.0708   -0.8250    0.0000 C   0  0  0  0  0  0           0  0  0
   -1.7833    0.4208    0.0000 O   0  0  0  0  0  0           0  0  0
   -1.3833   -5.2500    0.0000 C   0  0  0  0  0  0           0  0  0
   -2.2083   -5.2500    0.0000 C   0  0  0  0  0  0           0  0  0
   -2.5000    0.8333    0.0000 C   0  0  0  0  0  0           0  0  0
  2  1  1  0     0  0
  3  1  2  0     0  0
  4  2  2  0     0  0
  5 14  1  0     0  0
  6  5  3  0     0  0
  7  3  1  0     0  0
  8 13  1  0     0  0
  9  2  1  0     0  0
 10  3  1  0     0  0
 11  1  1  0     0  0
 12  7  1  0     0  0
 13 20  2  0     0  0
 14 11  2  0     0  0
 15  8  2  0     0  0
 16  6  1  0     0  0
 17  9  2  0     0  0
 18  9  1  0     0  0
 19 24  2  0     0  0
 20 25  1  0     0  0
 21 14  1  0     0  0
 22  8  1  0     0  0
 23 26  1  0     0  0
 24 16  1  0     0  0
 25 16  2  0     0  0
 26 18  2  0     0  0
 27 17  1  0     0  0
 28 23  1  0     0  0
 29  7  1  0     0  0
 30  7  1  0     0  0
 31 28  1  0     0  0
 10 21  2  0     0  0
  4 12  1  0     0  0
 27 23  2  0     0  0
 13 19  1  0     0  0
M  END