
  SciTegic10311316282D

 15 15  0  0  0  0            999 V2000
    4.9957   -2.0554    0.0000 S   0  0
    5.4084   -1.3477    0.0000 O   0  0
    4.5871   -1.3477    0.0000 O   0  0
    2.8602   -2.4681    0.0000 C   0  0
    3.5720   -2.0554    0.0000 C   0  0
    2.1525   -2.0554    0.0000 N   0  0
    1.4406   -2.4681    0.0000 O   0  0
    2.8602   -3.2894    0.0000 O   0  0
    4.2838   -2.4681    0.0000 N   0  0
    5.7075   -2.4681    0.0000 C   0  0
    5.7052   -3.2905    0.0000 C   0  0
    6.4162   -3.6990    0.0000 C   0  0
    7.1290   -3.2903    0.0000 C   0  0
    7.1264   -2.4648    0.0000 C   0  0
    6.4148   -2.0558    0.0000 C   0  0
  2  1  2  0
  1  3  2  0
  4  5  1  0
  4  6  1  0
  6  7  1  0
  4  8  2  0
  5  9  1  0
  9  1  1  0
  1 10  1  0
 10 11  2  0
 11 12  1  0
 12 13  2  0
 13 14  1  0
 14 15  2  0
 15 10  1  0
M  END