
          11280715042D 1   1.00000     0.00000     0

 28 30  0     0  0            999 V2000
    2.1750   -1.9292    0.0000 N   0  0  3  0  0  0           0  0  0
    1.4542   -1.5167    0.0000 C   0  0  0  0  0  0           0  0  0
    2.8875   -1.5167    0.0000 C   0  0  0  0  0  0           0  0  0
    1.4542   -0.6917    0.0000 C   0  0  0  0  0  0           0  0  0
    2.1750   -2.7542    0.0000 C   0  0  0  0  0  0           0  0  0
    2.1667   -0.2750    0.0000 C   0  0  0  0  0  0           0  0  0
    3.6042   -1.9292    0.0000 C   0  0  0  0  0  0           0  0  0
    1.4625   -3.1667    0.0000 C   0  0  0  0  0  0           0  0  0
    2.3042   -0.8792    0.0000 O   0  0  0  0  0  0           0  0  0
    0.7500   -2.7625    0.0000 C   0  0  0  0  0  0           0  0  0
    2.1667    0.5500    0.0000 O   0  0  0  0  0  0           0  0  0
    3.6042   -2.7542    0.0000 O   0  0  0  0  0  0           0  0  0
    2.8875   -0.6792    0.0000 O   0  0  0  0  0  0           0  0  0
    4.3167   -1.5167    0.0000 O   0  0  0  0  0  0           0  0  0
    0.7417   -0.2792    0.0000 C   0  0  0  0  0  0           0  0  0
    0.7500   -1.9375    0.0000 C   0  0  0  0  0  0           0  0  0
    0.0375   -3.1750    0.0000 C   0  0  0  0  0  0           0  0  0
    2.8875   -3.1625    0.0000 C   0  0  0  0  0  0           0  0  0
    1.4667   -3.9917    0.0000 C   0  0  0  0  0  0           0  0  0
   -0.6833   -2.7625    0.0000 C   0  0  0  0  0  0           0  0  0
    0.0417   -3.9917    0.0000 C   0  0  0  0  0  0           0  0  0
    0.0292   -0.6917    0.0000 C   0  0  0  0  0  0           0  0  0
    0.0292   -1.5167    0.0000 C   0  0  0  0  0  0           0  0  0
    2.8917   -3.9875    0.0000 C   0  0  0  0  0  0           0  0  0
    2.1792   -4.4042    0.0000 C   0  0  0  0  0  0           0  0  0
   -0.6708   -4.4125    0.0000 C   0  0  0  0  0  0           0  0  0
   -1.3958   -3.1750    0.0000 C   0  0  0  0  0  0           0  0  0
   -1.3958   -4.0000    0.0000 C   0  0  0  0  0  0           0  0  0
  2  1  1  0     0  0
  3  1  1  0     0  0
  4  2  1  0     0  0
  5  1  1  0     0  0
  6  4  1  0     0  0
  7  3  1  0     0  0
  8  5  2  0     0  0
  9  3  2  0     0  0
 10  8  1  0     0  0
 11  6  2  0     0  0
 12  7  2  0     0  0
 13  6  1  0     0  0
 14  7  1  0     0  0
 15  4  2  0     0  0
 16  2  2  0     0  0
 17 10  1  0     0  0
 18  5  1  0     0  0
 19  8  1  0     0  0
 20 17  2  0     0  0
 21 17  1  0     0  0
 22 23  2  0     0  0
 23 16  1  0     0  0
 24 18  2  0     0  0
 25 24  1  0     0  0
 26 21  2  0     0  0
 27 20  1  0     0  0
 28 26  1  0     0  0
 25 19  2  0     0  0
 22 15  1  0     0  0
 28 27  2  0     0  0
M  END