
  SciTegic12171313032D

 25 27  0  0  0  0            999 V2000
    0.9148  -26.7527    0.0000 C   0  0
    0.9137  -27.5722    0.0000 C   0  0
    1.6217  -27.9812    0.0000 N   0  0
    2.3314  -27.5717    0.0000 C   0  0
    2.3286  -26.7491    0.0000 C   0  0
    1.6199  -26.3438    0.0000 C   0  0
    3.0397  -27.9792    0.0000 N   0  0
    3.0347  -26.3378    0.0000 N   0  0
    3.0316  -25.5206    0.0000 C   0  0  1  0  0  0
    3.7378  -25.1094    0.0000 C   0  0
    2.3224  -25.1147    0.0000 C   0  0
    4.4423  -25.5188    0.0000 C   0  0
    5.1480  -25.1082    0.0000 C   0  0
    5.1454  -24.2902    0.0000 C   0  0
    4.4311  -23.8844    0.0000 C   0  0
    3.7284  -24.2973    0.0000 C   0  0
    0.2091  -26.3444    0.0000 C   0  0
    0.2102  -25.5261    0.0000 C   0  0
   -0.5021  -25.1178    0.0000 C   0  0
   -1.2132  -25.5266    0.0000 C   0  0
   -1.2078  -26.3480    0.0000 C   0  0
   -0.4956  -26.7526    0.0000 C   0  0
   -1.9112  -26.7571    0.0000 C   0  0
   -2.6218  -26.3511    0.0000 O   0  0
   -1.9143  -27.5743    0.0000 O   0  0
  1  2  2  0
  2  3  1  0
  3  4  2  0
  4  5  1  0
  5  6  2  0
  6  1  1  0
  4  7  1  0
  5  8  1  0
  8  9  1  0
  9 10  1  0
  9 11  1  6
 10 12  2  0
 12 13  1  0
 13 14  2  0
 14 15  1  0
 15 16  2  0
 16 10  1  0
 17 18  2  0
 18 19  1  0
 19 20  2  0
 20 21  1  0
 21 22  2  0
 22 17  1  0
  1 17  1  0
 23 24  1  0
 23 25  2  0
 21 23  1  0
M  END