
          11280715362D 1   1.00000     0.00000     0

 36 39  0     1  0            999 V2000
    1.4667   -3.2542    0.0000 C   0  0  1  0  0  0           0  0  0
    1.2875   -2.4542    0.0000 C   0  0  2  0  0  0           0  0  0
    2.0542   -3.8417    0.0000 N   0  0  3  0  0  0           0  0  0
    0.7625   -3.6792    0.0000 C   0  0  0  0  0  0           0  0  0
    3.7167   -0.8750    0.0000 C   0  0  0  0  0  0           0  0  0
    0.4667   -2.3792    0.0000 C   0  0  3  0  0  0           0  0  0
    2.9000   -0.9000    0.0000 C   0  0  0  0  0  0           0  0  0
    6.2417   -3.2417    0.0000 C   0  0  0  0  0  0           0  0  0
    0.0417   -1.6667    0.0000 O   0  0  0  0  0  0           0  0  0
    4.1167   -0.1542    0.0000 C   0  0  0  0  0  0           0  0  0
    0.1417   -3.1375    0.0000 C   0  0  0  0  0  0           0  0  0
    6.9042   -2.9750    0.0000 O   0  0  0  0  0  0           0  0  0
    2.4875   -0.1917    0.0000 C   0  0  0  0  0  0           0  0  0
    2.5000   -1.6167    0.0000 C   0  0  0  0  0  0           0  0  0
    3.3792   -2.4042    0.0000 C   0  0  0  0  0  0           0  0  0
    4.2417   -2.4667    0.0000 C   0  0  0  0  0  0           0  0  0
    2.0792   -2.2375    0.0000 O   0  0  0  0  0  0           0  0  0
    0.4417   -0.9542    0.0000 C   0  0  0  0  0  0           0  0  0
    1.2667   -0.9417    0.0000 C   0  0  0  0  0  0           0  0  0
    6.1417   -3.9500    0.0000 O   0  0  0  0  0  0           0  0  0
    1.6667   -0.2167    0.0000 C   0  0  0  0  0  0           0  0  0
    1.6792   -1.6375    0.0000 C   0  0  0  0  0  0           0  0  0
    3.6875    0.5458    0.0000 O   0  0  0  0  0  0           0  0  0
    1.7875   -4.6167    0.0000 C   0  0  0  0  0  0           0  0  0
    2.8250   -3.5667    0.0000 C   0  0  0  0  0  0           0  0  0
    2.6667   -2.8167    0.0000 C   0  0  0  0  0  0           0  0  0
    4.1250   -1.5792    0.0000 C   0  0  0  0  0  0           0  0  0
    5.6792   -2.8042    0.0000 C   0  0  0  0  0  0           0  0  0
    4.7417   -3.0542    0.0000 C   0  0  0  0  0  0           0  0  0
    4.9292   -0.1417    0.0000 C   0  0  0  0  0  0           0  0  0
    2.2250   -5.3125    0.0000 C   0  0  0  0  0  0           0  0  0
    3.5250   -4.0042    0.0000 C   0  0  0  0  0  0           0  0  0
    4.9417   -1.5667    0.0000 C   0  0  0  0  0  0           0  0  0
    5.3417   -0.8417    0.0000 C   0  0  0  0  0  0           0  0  0
    3.0417   -5.3917    0.0000 C   0  0  0  0  0  0           0  0  0
    3.6250   -4.8167    0.0000 C   0  0  0  0  0  0           0  0  0
  2  1  1  0     0  0
  1  3  1  1     0  0
  4  1  1  0     0  0
  5  7  1  0     0  0
  6  2  1  0     0  0
  7 14  1  0     0  0
  8 28  1  0     0  0
  9  6  1  0     0  0
 10  5  1  0     0  0
 11  4  1  0     0  0
 12  8  2  0     0  0
 13 21  1  0     0  0
 14 22  2  0     0  0
 15 26  1  0     0  0
 16 15  2  0     0  0
  2 17  1  6     0  0
 18  9  1  0     0  0
 19 18  1  0     0  0
 20  8  1  0     0  0
 21 19  2  0     0  0
 22 19  1  0     0  0
 23 10  1  0     0  0
 24  3  1  0     0  0
 25  3  1  0     0  0
 26 17  1  0     0  0
 27  5  2  0     0  0
 28 29  1  0     0  0
 29 16  1  0     0  0
 30 10  2  0     0  0
 31 24  1  0     0  0
 32 25  1  0     0  0
 33 27  1  0     0  0
 34 33  2  0     0  0
 35 31  1  0     0  0
 36 32  1  0     0  0
  6 11  1  0     0  0
 36 35  1  0     0  0
  7 13  2  0     0  0
 34 30  1  0     0  0
M  END