
  SciTegic01161211252D

 32 35  0  0  0  0            999 V2000
    4.6875   -3.7583    0.0000 N   0  0
    5.4750   -3.5208    0.0000 C   0  0
    4.7125   -2.4208    0.0000 N   0  3
    5.4917   -2.6917    0.0000 C   0  0
    4.4125   -4.5333    0.0000 C   0  0  1  0  0  0
    6.1792   -3.9500    0.0000 N   0  0
    4.2167   -3.0792    0.0000 C   0  0
    6.2167   -2.2917    0.0000 C   0  0
    6.9250   -2.7250    0.0000 N   0  0
    4.8792   -5.2167    0.0000 C   0  0  1  0  0  0
    6.9083   -3.5542    0.0000 C   0  0
    3.6208   -4.7750    0.0000 O   0  0
    1.5000   -6.1875    0.0000 P   0  0
    3.6000   -5.6000    0.0000 C   0  0  1  0  0  0
    4.3792   -5.8750    0.0000 C   0  0  1  0  0  0
    4.4708   -1.6333    0.0000 C   0  0
    2.9208   -6.0708    0.0000 C   0  0
    2.1792   -5.7167    0.0000 O   0  0
    6.2333   -1.4667    0.0000 O   0  0
    2.0292   -6.8208    0.0000 O   0  5
    0.9125   -6.7667    0.0000 O   0  0
    0.9708   -5.5500    0.0000 O   0  0
    7.6125   -3.9792    0.0000 N   0  0
    5.7042   -5.2375    0.0000 O   0  0
    4.6167   -6.6625    0.0000 O   0  0
    5.0333   -1.0292    0.0000 C   0  0
    6.1583    0.1750    0.0000 C   0  0
    6.7208    0.7792    0.0000 F   0  0
    4.7917   -0.2458    0.0000 C   0  0
    5.8375   -1.2167    0.0000 C   0  0
    6.4000   -0.6167    0.0000 C   0  0
    5.3500    0.3583    0.0000 C   0  0
  2  1  1  0
  3  7  2  0
  4  2  2  0
  5  1  1  1
  6  2  1  0
  7  1  1  0
  8  4  1  0
  9  8  1  0
 10  5  1  0
 11  6  2  0
 12  5  1  0
 13 18  1  0
 14 12  1  0
 15 10  1  0
 16  3  1  0
 14 17  1  1
 18 17  1  0
 19  8  2  0
 20 13  1  0
 21 13  1  0
 22 13  2  0
 23 11  1  0
 10 24  1  6
 15 25  1  6
 26 16  1  0
 27 32  1  0
 28 27  1  0
 29 26  1  0
 30 26  2  0
 31 30  1  0
 32 29  2  0
  3  4  1  0
 15 14  1  0
  9 11  1  0
 27 31  2  0
M  CHG  2   3   1  20  -1
M  END