
  SciTegic01091216402D

 23 26  0  0  0  0            999 V2000
    6.2160  -13.5641    0.0000 C   0  0
    6.2160  -14.3912    0.0000 O   0  0
    6.9298  -14.8006    0.0000 C   0  0
    7.6421  -14.3893    0.0000 C   0  0
    8.3549  -14.8016    0.0000 C   0  0
    9.0697  -14.3897    0.0000 C   0  0
    9.0673  -13.5613    0.0000 C   0  0
    6.9298  -13.1463    0.0000 C   0  0
    7.6413  -13.5645    0.0000 C   0  0
    8.3571  -13.1576    0.0000 C   0  0
    8.3626  -12.3325    0.0000 C   0  0
    7.6465  -11.9162    0.0000 C   0  0
    6.9335  -12.3255    0.0000 C   0  0
    9.0810  -11.9225    0.0000 C   0  0
    9.7931  -12.3449    0.0000 N   0  0
   10.5093  -11.9383    0.0000 C   0  0
   10.5175  -11.1109    0.0000 N   0  0
    9.8034  -10.6916    0.0000 C   0  0
    9.0810  -11.0999    0.0000 N   0  0
   11.2220  -12.3580    0.0000 S   0  0
    9.8103   -9.8645    0.0000 N   0  0
   11.9418  -11.9507    0.0000 C   0  0
    7.6487  -11.0890    0.0000 Cl  0  0
 10 11  1  0
  4  5  1  0
 11 12  2  0
  1  8  1  0
 12 13  1  0
 13  8  2  0
  5  6  2  0
 11 14  1  0
 14 15  2  0
  2  3  1  0
  6  7  1  0
  7 10  2  0
  3  4  1  0
  1  2  1  0
 14 19  1  0
 15 16  1  0
 16 17  2  0
 17 18  1  0
 18 19  2  0
  8  9  1  0
 16 20  1  0
  9  4  2  0
 18 21  1  0
  9 10  1  0
 20 22  1  0
 12 23  1  0
M  END