
          11280715242D 1   1.00000     0.00000     0

 42 46  0     0  0            999 V2000
    6.0625   -6.5792    0.0000 N   0  0  0  0  0  0           0  0  0
    5.5875   -5.3292    0.0000 N   0  0  3  0  0  0           0  0  0
    6.7042   -6.0625    0.0000 C   0  0  0  0  0  0           0  0  0
    6.4125   -5.2917    0.0000 N   0  0  0  0  0  0           0  0  0
    5.3667   -6.1292    0.0000 C   0  0  0  0  0  0           0  0  0
    1.4667   -3.9042    0.0000 C   0  0  0  0  0  0           0  0  0
    1.8792   -4.6167    0.0000 C   0  0  0  0  0  0           0  0  0
    1.8792   -3.1917    0.0000 C   0  0  0  0  0  0           0  0  0
    9.5417   -9.3542    0.0000 N   0  0  0  0  0  0           0  0  0
   10.2542   -8.9417    0.0000 C   0  0  0  0  0  0           0  0  0
    5.1792   -4.6167    0.0000 C   0  0  0  0  0  0           0  0  0
   10.9750   -7.7042    0.0000 C   0  0  0  0  0  0           0  0  0
    7.4167   -6.4750    0.0000 S   0  0  0  0  0  0           0  0  0
    2.7042   -4.6167    0.0000 C   0  0  0  0  0  0           0  0  0
   10.2625   -7.2917    0.0000 C   0  0  0  0  0  0           0  0  0
   10.9750   -8.5292    0.0000 C   0  0  0  0  0  0           0  0  0
    2.7042   -3.1875    0.0000 O   0  0  0  0  0  0           0  0  0
    3.1125   -3.9042    0.0000 C   0  0  0  0  0  0           0  0  0
    3.1167   -5.3292    0.0000 C   0  0  0  0  0  0           0  0  0
    9.5417   -7.7042    0.0000 C   0  0  0  0  0  0           0  0  0
   10.2542   -6.4667    0.0000 C   0  0  0  0  0  0           0  0  0
    4.3542   -4.6167    0.0000 C   0  0  0  0  0  0           0  0  0
    1.4667   -2.4750    0.0000 O   0  0  0  0  0  0           0  0  0
    8.1292   -6.0542    0.0000 C   0  0  0  0  0  0           0  0  0
    8.8417   -6.4667    0.0000 C   0  0  0  0  0  0           0  0  0
    3.9375   -3.9000    0.0000 C   0  0  0  0  0  0           0  0  0
    3.9375   -5.3292    0.0000 C   0  0  0  0  0  0           0  0  0
    9.5500   -6.0542    0.0000 C   0  0  0  0  0  0           0  0  0
    8.8375   -7.2917    0.0000 C   0  0  0  0  0  0           0  0  0
    4.7875   -6.7042    0.0000 C   0  0  0  0  0  0           0  0  0
    0.6417   -3.9042    0.0000 C   0  0  0  0  0  0           0  0  0
    1.4667   -5.3292    0.0000 C   0  0  0  0  0  0           0  0  0
   11.6875   -7.2917    0.0000 C   0  0  0  0  0  0           0  0  0
   11.6875   -8.9417    0.0000 C   0  0  0  0  0  0           0  0  0
    3.9917   -6.4917    0.0000 C   0  0  0  0  0  0           0  0  0
    2.6125   -6.8667    0.0000 C   0  0  0  0  0  0           0  0  0
    3.4042   -7.0792    0.0000 C   0  0  0  0  0  0           0  0  0
    0.6417   -5.3292    0.0000 C   0  0  0  0  0  0           0  0  0
    0.2375   -4.6167    0.0000 C   0  0  0  0  0  0           0  0  0
   12.4000   -7.7042    0.0000 C   0  0  0  0  0  0           0  0  0
    2.0292   -7.4500    0.0000 C   0  0  0  0  0  0           0  0  0
   12.4042   -8.5292    0.0000 C   0  0  0  0  0  0           0  0  0
  2  5  1  0     0  0
  3  1  1  0     0  0
  4  3  2  0     0  0
  5  1  2  0     0  0
  6  7  2  0     0  0
  7 14  1  0     0  0
  8  6  1  0     0  0
  9 10  3  0     0  0
 10 16  1  0     0  0
 11  2  1  0     0  0
 12 15  1  0     0  0
 13  3  1  0     0  0
 14 19  2  0     0  0
 15 20  2  0     0  0
 16 12  2  0     0  0
 17  8  2  0     0  0
 18 26  2  0     0  0
 19 27  1  0     0  0
 20 29  1  0     0  0
 21 28  2  0     0  0
 22 11  1  0     0  0
 23  8  1  0     0  0
 24 13  1  0     0  0
 25 24  1  0     0  0
 26 22  1  0     0  0
 27 22  2  0     0  0
 28 25  1  0     0  0
 29 25  2  0     0  0
 30  5  1  0     0  0
 31  6  1  0     0  0
 32  7  1  0     0  0
 33 12  1  0     0  0
 34 16  1  0     0  0
 35 30  1  0     0  0
 36 37  1  0     0  0
 37 35  1  0     0  0
 38 32  2  0     0  0
 39 38  1  0     0  0
 40 33  2  0     0  0
 41 36  1  0     0  0
 42 40  1  0     0  0
  2  4  1  0     0  0
 14 18  1  0     0  0
 15 21  1  0     0  0
 39 31  2  0     0  0
 42 34  2  0     0  0
M  END