
  SciTegic06051315212D

 26 29  0  0  0  0            999 V2000
    0.8322  -21.6371    0.0000 C   0  0  1  0  0  0
    2.3348  -21.7591    0.0000 C   0  0  1  0  0  0
    3.0378  -21.3377    0.0000 O   0  0
    3.0219  -20.5139    0.0000 C   0  0  1  0  0  0
    2.3029  -20.1116    0.0000 C   0  0
    1.6160  -21.3652    0.0000 C   0  0  1  0  0  0
    1.5953  -20.5370    0.0000 C   0  0  2  0  0  0
    0.8014  -20.3007    0.0000 C   0  0  1  0  0  0
    0.3280  -20.9798    0.0000 C   0  0
    1.5714  -19.7097    0.0000 H   0  0
    1.6278  -22.1890    0.0000 H   0  0
    0.5294  -19.5230    0.0000 O   0  0
    1.0670  -18.8986    0.0000 C   0  0
    0.7950  -18.1209    0.0000 O   0  0
    3.7285  -20.0904    0.0000 O   0  0
    1.8743  -19.0495    0.0000 C   0  0
    2.1453  -19.8287    0.0000 C   0  0
    2.9540  -19.9823    0.0000 C   0  0
    3.4924  -19.3575    0.0000 C   0  0
    3.2166  -18.5767    0.0000 C   0  0
    2.4085  -18.4269    0.0000 C   0  0
    4.3021  -19.5098    0.0000 O   0  0
    1.0944  -22.6607    0.0000 C   0  0
    2.0264  -22.6607    0.0000 O   0  0
    0.2455  -22.2196    0.0000 O   0  0
    2.9169  -22.3403    0.0000 H   0  0
  7  5  1  0
  6  2  1  0
  2  3  1  0
  3  4  1  0
  4  5  1  0
  6  7  1  0
  7  8  1  0
  8  9  1  0
  1  6  1  0
  9  1  1  0
  7 10  1  1
  6 11  1  1
  8 12  1  1
 12 13  1  0
 13 14  2  0
  4 15  1  1
 16 17  2  0
 17 18  1  0
 18 19  2  0
 19 20  1  0
 20 21  2  0
 21 16  1  0
 13 16  1  0
 19 22  1  0
  1 23  1  0
  2 24  1  0
 23 24  1  0
  1 25  1  1
  2 26  1  1
M  END