
          02060813482D 1   1.00000     0.00000     0

 41 44  0     0  0            999 V2000
   11.6652  -11.7125    0.0000 C   0  0  0  0  0  0           0  0  0
   11.6641  -12.5398    0.0000 C   0  0  0  0  0  0           0  0  0
   12.3789  -12.9527    0.0000 C   0  0  0  0  0  0           0  0  0
   13.0953  -12.5394    0.0000 C   0  0  0  0  0  0           0  0  0
   13.0925  -11.7088    0.0000 C   0  0  0  0  0  0           0  0  0
   12.3771  -11.2997    0.0000 C   0  0  0  0  0  0           0  0  0
   10.9493  -12.9518    0.0000 Cl  0  0  0  0  0  0           0  0  0
   12.3746  -10.4747    0.0000 C   0  0  0  0  0  0           0  0  0
   13.0879  -10.0601    0.0000 N   0  0  3  0  0  0           0  0  0
   13.0854   -9.2351    0.0000 C   0  0  0  0  0  0           0  0  0
   13.7986   -8.8204    0.0000 C   0  0  0  0  0  0           0  0  0
   12.3697   -8.8247    0.0000 O   0  0  0  0  0  0           0  0  0
   13.8054  -11.2936    0.0000 O   0  0  0  0  0  0           0  0  0
   13.8105  -12.9507    0.0000 C   0  0  0  0  0  0           0  0  0
   13.8069  -13.7761    0.0000 C   0  0  0  0  0  0           0  0  0
   14.5211  -14.1874    0.0000 C   0  0  0  0  0  0           0  0  0
   15.2359  -13.7737    0.0000 C   0  0  0  0  0  0           0  0  0
   15.2320  -12.9444    0.0000 C   0  0  0  0  0  0           0  0  0
   14.5171  -12.5369    0.0000 N   0  0  0  0  0  0           0  0  0
   15.9443  -12.5283    0.0000 O   0  0  0  0  0  0           0  0  0
   15.9516  -14.1841    0.0000 C   0  0  0  0  0  0           0  0  0
   16.6625  -14.5958    0.0000 N   0  0  0  0  0  0           0  0  0
   14.5220  -15.0124    0.0000 C   0  0  0  0  0  0           0  0  0
   13.8086  -15.4207    0.0000 C   0  0  0  0  0  0           0  0  0
   13.8091  -16.2450    0.0000 C   0  0  0  0  0  0           0  0  0
   14.5246  -16.6575    0.0000 C   0  0  0  0  0  0           0  0  0
   15.2410  -16.2398    0.0000 C   0  0  0  0  0  0           0  0  0
   15.2369  -15.4169    0.0000 C   0  0  0  0  0  0           0  0  0
   13.0947  -15.0071    0.0000 Cl  0  0  0  0  0  0           0  0  0
   15.9573  -16.6490    0.0000 C   0  0  3  0  0  0           0  0  0
   16.6667  -17.0583    0.0000 F   0  0  0  0  0  0           0  0  0
   16.3681  -15.9335    0.0000 F   0  0  0  0  0  0           0  0  0
   15.5518  -17.3675    0.0000 F   0  0  0  0  0  0           0  0  0
   13.8036  -10.4704    0.0000 C   0  0  0  0  0  0           0  0  0
   14.5143   -9.2308    0.0000 C   0  0  0  0  0  0           0  0  0
   15.2276   -8.8162    0.0000 N   0  0  3  0  0  0           0  0  0
   15.9382   -9.2292    0.0000 C   0  0  0  0  0  0           0  0  0
   16.6493   -8.8180    0.0000 C   0  0  0  0  0  0           0  0  0
   16.6511   -7.9927    0.0000 O   0  0  0  0  0  0           0  0  0
   15.9356   -7.5801    0.0000 C   0  0  0  0  0  0           0  0  0
   15.2182   -7.9929    0.0000 C   0  0  0  0  0  0           0  0  0
 18 20  2  0     0  0
  9 10  1  0     0  0
 17 21  1  0     0  0
  2  3  1  0     0  0
 21 22  3  0     0  0
 10 11  1  0     0  0
 16 23  1  0     0  0
  5  6  2  0     0  0
 23 24  2  0     0  0
 10 12  2  0     0  0
 24 25  1  0     0  0
  6  1  1  0     0  0
 25 26  2  0     0  0
  5 13  1  0     0  0
 26 27  1  0     0  0
  1  2  2  0     0  0
 27 28  2  0     0  0
 28 23  1  0     0  0
  4 14  1  0     0  0
 24 29  1  0     0  0
  2  7  1  0     0  0
 27 30  1  0     0  0
 14 15  2  0     0  0
 30 31  1  0     0  0
  3  4  2  0     0  0
 30 32  1  0     0  0
 15 16  1  0     0  0
 30 33  1  0     0  0
  6  8  1  0     0  0
  9 34  1  0     0  0
 16 17  2  0     0  0
 11 35  1  0     0  0
 35 36  1  0     0  0
 36 37  1  0     0  0
 17 18  1  0     0  0
  8  9  1  0     0  0
 18 19  1  0     0  0
 19 14  1  0     0  0
  4  5  1  0     0  0
 36 41  1  0     0  0
 37 38  1  0     0  0
 38 39  1  0     0  0
 39 40  1  0     0  0
 40 41  1  0     0  0
M  END