
  SciTegic10191216002D

 32 36  0  0  0  0            999 V2000
    0.6017  -12.7007    0.0000 C   0  0
    0.6003  -13.5316    0.0000 C   0  0
    1.3201  -13.9458    0.0000 C   0  0
    2.0415  -13.5311    0.0000 C   0  0
    2.0381  -12.6964    0.0000 C   0  0
    1.3179  -12.2862    0.0000 C   0  0
    1.3199  -14.7692    0.0000 C   0  0
    1.3158  -16.4256    0.0000 C   0  0
    2.0326  -16.0131    0.0000 N   0  0
    2.0373  -15.1869    0.0000 C   0  0
    0.5941  -16.0115    0.0000 C   0  0
    0.5982  -15.1881    0.0000 C   0  0
   -0.1088  -14.7702    0.0000 C   0  0
   -0.8205  -15.1839    0.0000 C   0  0
   -0.8200  -16.0112    0.0000 C   0  0
   -0.1121  -16.4151    0.0000 C   0  0
    1.3195  -11.4581    0.0000 S   0  0
    2.0326  -11.0419    0.0000 C   0  0
    2.7453  -16.4305    0.0000 C   0  0
   -1.5319  -16.4249    0.0000 O   0  0
   -2.2462  -16.0152    0.0000 C   0  0
   -2.3378  -15.1969    0.0000 S   0  0
   -3.1437  -15.0279    0.0000 C   0  0
   -3.5535  -15.7425    0.0000 C   0  0
   -3.0006  -16.3526    0.0000 N   0  0
   -4.3770  -15.7439    0.0000 C   0  0
   -4.7900  -15.0315    0.0000 N   0  0
   -4.3811  -14.3159    0.0000 C   0  0
   -4.7907  -13.6056    0.0000 C   0  0
   -5.6145  -13.6029    0.0000 C   0  0
   -6.0271  -14.3166    0.0000 C   0  0
   -5.6159  -15.0331    0.0000 C   0  0
  5  6  2  0
 11 12  2  0
  6  1  1  0
 12 13  1  0
  1  2  2  0
 13 14  2  0
  7  3  1  0
 14 15  1  0
  7 12  1  0
 15 20  1  0
 15 16  2  0
 20 21  1  0
 21 22  1  0
 16 11  1  0
  3  4  2  0
  6 17  1  0
 17 18  1  0
 22 23  1  0
 23 24  2  0
 24 25  1  0
 25 21  2  0
  4  5  1  0
 24 26  1  0
  9 19  1  0
 26 27  1  0
 27 28  1  0
  7 10  1  0
 11  8  1  0
  8  9  1  0
  9 10  1  0
  2  3  1  0
 27 32  1  0
 28 29  1  0
 29 30  1  0
 30 31  1  0
 31 32  1  0
M  END