
  SciTegic12231509382D

 27 29  0  0  0  0            999 V2000
    2.4256   -9.2246    0.0000 C   0  0
    3.2013   -9.4968    0.0000 C   0  0  2  0  0  0
    3.4405  -10.2897    0.0000 C   0  0  2  0  0  0
    4.2663  -10.3064    0.0000 C   0  0
    4.5365   -9.5270    0.0000 C   0  0  1  0  0  0
    3.8810   -9.0264    0.0000 O   0  0
    5.3258   -9.2898    0.0000 N   0  0
    5.9828   -9.7847    0.0000 C   0  0
    6.6624   -9.3143    0.0000 N   0  0
    6.4253   -8.5251    0.0000 C   0  0
    6.8503   -7.8209    0.0000 C   0  0
    7.6762   -7.8376    0.0000 N   0  0
    6.4530   -7.0981    0.0000 N   0  0
    5.6307   -7.0794    0.0000 C   0  0
    5.2022   -7.7855    0.0000 N   0  0
    5.5994   -8.5084    0.0000 C   0  0
    8.1011   -7.1335    0.0000 C   0  0
    2.1236  -10.8408    0.0000 P   0  0
    2.9437  -10.9431    0.0000 O   0  0
    1.5488   -8.0989    0.0000 P   0  0
    2.3116   -8.4075    0.0000 O   0  0
    1.4344   -7.2819    0.0000 O   0  0
    0.9581   -8.6816    0.0000 O   0  0
    0.8290   -7.6860    0.0000 O   0  0
    1.6259  -11.4987    0.0000 O   0  0
    1.8026  -10.0810    0.0000 O   0  0
    1.2955  -10.8395    0.0000 O   0  0
  4  5  1  0
  5  6  1  0
  2  6  1  0
  5  7  1  1
  7  8  1  0
  8  9  2  0
  9 10  1  0
 10 11  1  0
 11 12  1  0
 11 13  2  0
 13 14  1  0
 14 15  2  0
 15 16  1  0
 10 16  2  0
  7 16  1  0
 12 17  1  0
 18 19  1  0
  3 19  1  6
 20 21  1  0
  1 21  1  0
 20 22  1  0
 20 23  1  0
 20 24  2  0
 18 25  1  0
 18 26  1  0
  2  1  1  1
 18 27  2  0
  2  3  1  0
  3  4  1  0
M  END