
  SciTegic09081514182D

 83 90  0  0  0  0            999 V2000
   11.6840    5.1422    0.0000 C   0  0
   17.9609   10.6555    0.0000 C   0  0
    9.8795   -6.1546    0.0000 C   0  0
   13.7577   -9.6310    0.0000 O   0  0
   -2.3155    0.7475    0.0000 C   0  0
   13.9630   13.9825    0.0000 C   0  0
    9.3787   -3.8167    0.0000 C   0  0
   25.7516   18.8463    0.0000 C   0  0
   -4.6632   -2.0826    0.0000 O   0  5
   14.9983   11.1667    0.0000 C   0  0
   12.9480    0.9691    0.0000 O   0  0
   13.0026   12.8303    0.0000 C   0  0
    6.5137   -4.5411    0.0000 C   0  0
   27.2375   19.0791    0.0000 C   0  0
    2.1855   -2.6254    0.0000 C   0  0
    2.8908    1.4370    0.0000 C   0  0
   11.1756   -5.4095    0.0000 C   0  0
    0.8955    2.0810    0.0000 C   0  0
   18.8420   15.7776    0.0000 C   0  0
   -3.6279   -2.6892    0.0000 O   0  0
   10.9400    7.9074    0.0000 O   0  0
   10.8066    0.0168    0.0000 C   0  0
   13.0814    8.8597    0.0000 C   0  0
   12.2039    3.7343    0.0000 C   0  0
   10.8619   -3.9494    0.0000 C   0  0
    3.3606   -2.8684    0.0000 C   0  0
   12.6427    6.2970    0.0000 N   0  0
   27.6211   16.4931    0.0000 C   0  0
    7.1146   -2.5384    0.0000 C   0  0
   -1.0028    1.5132    0.0000 C   0  0
   11.7652    1.1716    0.0000 C   0  0
   12.5615   10.2676    0.0000 C   0  0
   17.4409   12.0625    0.0000 C   0  0
   23.3341   18.9843    0.0000 C   0  0
   23.7220   17.5736    0.0000 C   0  0
    8.6154   -2.5245    0.0000 C   0  0
   18.3994   13.2164    0.0000 C   0  0
   19.8779   12.9631    0.0000 C   0  0
   17.8811   14.6248    0.0000 N   0  0
   13.7684   -8.4311    0.0000 S   0  0
   19.8554    9.2767    0.0000 Cl  0  0
   15.4411   13.7268    0.0000 C   0  0
   13.5201   11.4223    0.0000 C   0  0
    8.7756   -5.1490    0.0000 N   0  0
   12.1228    7.7049    0.0000 C   0  0
   19.4394   10.4023    0.0000 C   0  0
    0.2917   -0.7475    0.0000 C   0  0
   28.1740   17.8822    0.0000 C   0  0
   17.1699   15.8018    0.0000 O   0  0
   10.3678   -2.5459    0.0000 C   0  0
   20.3979   11.5561    0.0000 C   0  0
   15.9876   16.0058    0.0000 O   0  0
    1.7138   -1.2033    0.0000 N   0  3
   26.1183   16.2671    0.0000 C   0  0
   11.1790   -8.4148    0.0000 C   0  0
   22.7610   16.4207    0.0000 N   0  0
   14.8022   -9.0405    0.0000 O   0  0
   21.2820   16.6756    0.0000 N   0  0
   16.4020   14.8796    0.0000 S   0  0
   24.5989   19.7957    0.0000 N   0  0
    1.7138    1.2033    0.0000 C   0  0
   12.0340   -4.2065    0.0000 C   0  0
   -2.3155   -0.7475    0.0000 C   0  0
   -1.0028   -1.5132    0.0000 C   0  0
    4.8506   -1.2602    0.0000 C   0  0
   11.3265   -1.3911    0.0000 C   0  0
    4.0872    0.0320    0.0000 C   0  0
   20.7355   14.3966    0.0000 O   0  0
   20.3210   15.5228    0.0000 C   0  0
    0.2917    0.7475    0.0000 C   0  0
   -4.6557   -0.8828    0.0000 O   0  0
   15.9587   12.3190    0.0000 C   0  0
    2.5889    0.0182    0.0000 C   0  0
   11.2453    2.5795    0.0000 N   0  0
   22.2136   19.4139    0.0000 O   0  0
    6.3513   -1.2462    0.0000 C   0  0
    9.8609   -7.6585    0.0000 C   0  0
   12.4751   -7.6697    0.0000 C   0  0
    7.3060   -5.4423    0.0000 C   0  0
   12.4846   -6.1500    0.0000 C   0  0
   25.1988   17.4572    0.0000 C   0  0
   14.8131   -7.8407    0.0000 O   0  0
   -3.6202   -1.4892    0.0000 S   0  0
 27  1  1  0
 56 58  1  0
 24 74  1  0
 39 37  1  0
 70 30  1  0
  7 44  1  0
 54 81  1  0
  7 36  2  0
 47 53  1  0
 28 54  2  0
 69 68  2  0
  3 17  2  0
  6 12  1  0
 46 41  1  0
 79 13  1  0
 69 19  1  0
 14 48  2  0
 25 50  1  0
 40  4  1  0
 36 29  1  0
 43 32  1  0
 45 21  2  0
 46  2  1  0
 83 71  2  0
 78 80  2  0
 80 17  1  0
 53 73  2  0
 66 22  1  0
 47 70  2  0
 44  3  1  0
 59 52  2  0
 65 67  2  0
 34 75  2  0
 67 73  1  0
 78 40  1  0
  8 81  2  0
 12 43  2  0
  8 14  1  0
  1 24  1  0
 34 60  1  0
 40 82  2  0
 40 57  2  0
 61 70  1  0
 33 37  1  0
 73 61  1  0
 64 47  1  0
 42  6  2  0
 31 11  2  0
 72 42  1  0
 15 26  1  0
 32 23  1  0
 22 31  1  0
 29 76  2  0
 25  7  1  0
 59 42  1  0
 60  8  1  0
 61 18  1  0
 50 66  1  0
 43 10  1  0
 37 38  2  0
 77 55  2  0
 30  5  2  0
 35 34  1  0
 63 83  1  0
 83 20  2  0
 23 45  1  0
 39 59  1  0
 81 35  1  0
 38 51  1  0
 10 72  2  0
 61 16  1  0
 53 15  1  0
 76 65  1  0
 25 62  1  0
 19 39  1  0
 31 74  1  0
  5 63  1  0
 35 56  2  0
 51 46  2  0
 45 27  1  0
 44 79  1  0
 58 69  1  0
 59 49  2  0
 63 64  2  0
  2 33  2  0
 17 25  1  0
 55 78  1  0
 48 28  1  0
  3 77  1  0
 83  9  1  0
M  CHG  2   9  -1  53   1
M  END