
          11280714592D 1   1.00000     0.00000     0

 34 37  0     1  0            999 V2000
    4.8917   -3.4500    0.0000 S   0  0  3  0  0  0           0  0  0
    7.1167   -3.4542    0.0000 S   0  0  3  0  0  0           0  0  0
    5.0542   -2.8667    0.0000 N   0  0  3  0  0  0           0  0  0
    4.1167   -1.5417    0.0000 C   0  0  2  0  0  0           0  0  0
    4.1125   -2.1417    0.0000 C   0  0  0  0  0  0           0  0  0
    4.6375   -1.2417    0.0000 N   0  0  3  0  0  0           0  0  0
    4.7417   -4.0292    0.0000 C   0  0  0  0  0  0           0  0  0
    4.6292   -2.4500    0.0000 C   0  0  1  0  0  0           0  0  0
    3.5917   -1.2417    0.0000 C   0  0  0  0  0  0           0  0  0
    4.2917   -3.4417    0.0000 O   0  0  0  0  0  0           0  0  0
    5.4917   -3.4500    0.0000 O   0  0  0  0  0  0           0  0  0
    5.1542   -2.1500    0.0000 C   0  0  0  0  0  0           0  0  0
    6.5250   -3.8250    0.0000 O   0  0  0  0  0  0           0  0  0
    7.6500   -3.2292    0.0000 O   0  0  0  0  0  0           0  0  0
    6.6292   -2.9875    0.0000 N   0  0  0  0  0  0           0  0  0
    5.1542   -1.5417    0.0000 C   0  0  0  0  0  0           0  0  0
    3.5917   -0.6417    0.0000 C   0  0  0  0  0  0           0  0  0
    4.6375   -0.6417    0.0000 C   0  0  0  0  0  0           0  0  0
    5.1667   -4.4417    0.0000 C   0  0  0  0  0  0           0  0  0
    5.6292   -2.7167    0.0000 C   0  0  0  0  0  0           0  0  0
    6.0542   -3.1417    0.0000 C   0  0  0  0  0  0           0  0  0
    4.1167   -0.3375    0.0000 C   0  0  0  0  0  0           0  0  0
    7.4917   -3.9542    0.0000 C   0  0  0  0  0  0           0  0  0
    5.0167   -5.0250    0.0000 C   0  0  0  0  0  0           0  0  0
    4.1625   -4.1792    0.0000 C   0  0  0  0  0  0           0  0  0
    3.0750   -1.5417    0.0000 C   0  0  0  0  0  0           0  0  0
    4.0125   -4.7625    0.0000 C   0  0  0  0  0  0           0  0  0
    3.0750   -0.3417    0.0000 C   0  0  0  0  0  0           0  0  0
    4.4375   -5.1875    0.0000 C   0  0  0  0  0  0           0  0  0
    5.4417   -5.4417    0.0000 C   0  0  0  0  0  0           0  0  0
    2.5542   -1.2417    0.0000 C   0  0  0  0  0  0           0  0  0
    2.5542   -0.6417    0.0000 C   0  0  0  0  0  0           0  0  0
    4.2167   -2.9500    0.0000 H   0  0  0  0  0  0           0  0  0
    3.5917   -1.8375    0.0000 H   0  0  0  0  0  0           0  0  0
  2 15  1  0     0  0
  3  1  1  0     0  0
  4  5  1  0     0  0
  5  8  1  0     0  0
  6 16  1  0     0  0
  7  1  1  0     0  0
  8  3  1  0     0  0
  9  4  1  0     0  0
 10  1  2  0     0  0
 11  1  2  0     0  0
 12  8  1  0     0  0
 13  2  2  0     0  0
 14  2  2  0     0  0
 15 21  1  0     0  0
 16 12  1  0     0  0
 17  9  1  0     0  0
 18  6  1  0     0  0
 19  7  1  0     0  0
 20  3  1  0     0  0
 21 20  1  0     0  0
 22 18  1  0     0  0
 23  2  1  0     0  0
 24 19  2  0     0  0
 25  7  2  0     0  0
 26  9  2  0     0  0
 27 25  1  0     0  0
 28 17  2  0     0  0
 29 27  2  0     0  0
 30 24  1  0     0  0
 31 26  1  0     0  0
 32 31  2  0     0  0
  8 33  1  6     0  0
  4 34  1  6     0  0
 29 24  1  0     0  0
  4  6  1  0     0  0
 22 17  1  0     0  0
 32 28  1  0     0  0
M  END