
          11280715132D 1   1.00000     0.00000     0

 34 37  0     0  0            999 V2000
    5.0625   -4.3667    0.0000 C   0  0  0  0  0  0           0  0  0
    4.3417   -4.7792    0.0000 N   0  0  0  0  0  0           0  0  0
    5.0625   -3.5375    0.0000 C   0  0  0  0  0  0           0  0  0
    8.0667   -8.6917    0.0000 C   0  0  0  0  0  0           0  0  0
    7.5417   -9.9250    0.0000 N   0  0  0  0  0  0           0  0  0
    8.2500   -9.5042    0.0000 N   0  0  0  0  0  0           0  0  0
    6.9250   -9.3917    0.0000 N   0  0  0  0  0  0           0  0  0
    7.2542   -8.6167    0.0000 N   0  0  0  0  0  0           0  0  0
    3.6292   -4.3667    0.0000 C   0  0  0  0  0  0           0  0  0
    5.7750   -4.7792    0.0000 N   0  0  3  0  0  0           0  0  0
    8.6167   -8.0792    0.0000 C   0  0  0  0  0  0           0  0  0
    5.7750   -3.1167    0.0000 C   0  0  0  0  0  0           0  0  0
    3.6292   -3.5375    0.0000 N   0  0  0  0  0  0           0  0  0
    8.6167   -7.2500    0.0000 C   0  0  0  0  0  0           0  0  0
    4.3417   -3.1250    0.0000 C   0  0  0  0  0  0           0  0  0
    7.9125   -6.8417    0.0000 C   0  0  0  0  0  0           0  0  0
    5.7667   -5.6042    0.0000 C   0  0  0  0  0  0           0  0  0
    5.7667   -2.2917    0.0000 O   0  0  0  0  0  0           0  0  0
    2.9167   -4.7792    0.0000 S   0  0  0  0  0  0           0  0  0
    7.1917   -7.2542    0.0000 C   0  0  0  0  0  0           0  0  0
    7.9042   -6.0125    0.0000 C   0  0  0  0  0  0           0  0  0
    6.4875   -6.0167    0.0000 C   0  0  0  0  0  0           0  0  0
    6.4917   -3.5292    0.0000 O   0  0  0  0  0  0           0  0  0
    7.1917   -5.6000    0.0000 C   0  0  0  0  0  0           0  0  0
    6.4792   -6.8417    0.0000 C   0  0  0  0  0  0           0  0  0
    6.4792   -4.3667    0.0000 C   0  0  0  0  0  0           0  0  0
    9.3292   -8.4917    0.0000 C   0  0  0  0  0  0           0  0  0
    9.3292   -6.8417    0.0000 C   0  0  0  0  0  0           0  0  0
    2.1917   -4.3667    0.0000 C   0  0  0  0  0  0           0  0  0
    7.1917   -4.7792    0.0000 C   0  0  0  0  0  0           0  0  0
    7.9000   -4.3667    0.0000 C   0  0  0  0  0  0           0  0  0
   10.0417   -7.2500    0.0000 C   0  0  0  0  0  0           0  0  0
   10.0500   -8.0792    0.0000 C   0  0  0  0  0  0           0  0  0
    8.6125   -4.7792    0.0000 C   0  0  0  0  0  0           0  0  0
  2  1  2  0     0  0
  3  1  1  0     0  0
  4 11  1  0     0  0
  5  6  2  0     0  0
  6  4  1  0     0  0
  7  8  1  0     0  0
  8  4  2  0     0  0
  9  2  1  0     0  0
 10  1  1  0     0  0
 11 14  2  0     0  0
 12  3  1  0     0  0
 13 15  1  0     0  0
 14 16  1  0     0  0
 15  3  2  0     0  0
 16 20  2  0     0  0
 17 10  1  0     0  0
 18 12  2  0     0  0
 19  9  1  0     0  0
 20 25  1  0     0  0
 21 24  2  0     0  0
 22 17  1  0     0  0
 23 12  1  0     0  0
 24 22  1  0     0  0
 25 22  2  0     0  0
 26 10  1  0     0  0
 27 11  1  0     0  0
 28 14  1  0     0  0
 29 19  1  0     0  0
 30 26  1  0     0  0
 31 30  1  0     0  0
 32 28  2  0     0  0
 33 32  1  0     0  0
 34 31  1  0     0  0
 13  9  2  0     0  0
 21 16  1  0     0  0
 27 33  2  0     0  0
  7  5  1  0     0  0
M  END