
          11280715042D 1   1.00000     0.00000     0

 45 48  0     1  0            999 V2000
   -3.1958    1.4333    0.0000 C   0  0  0  0  0  0           0  0  0
   -3.1958    0.6083    0.0000 N   0  0  3  0  0  0           0  0  0
    3.9417   -1.0750    0.0000 C   0  0  0  0  0  0           0  0  0
    1.8000   -0.6542    0.0000 C   0  0  0  0  0  0           0  0  0
    4.6542   -0.6667    0.0000 C   0  0  0  0  0  0           0  0  0
    3.2292   -0.6625    0.0000 N   0  0  3  0  0  0           0  0  0
   -3.9083    1.8500    0.0000 C   0  0  3  0  0  0           0  0  0
    1.0792   -1.8875    0.0000 C   0  0  0  0  0  0           0  0  0
    2.5042   -1.0667    0.0000 C   0  0  0  0  0  0           0  0  0
    1.0792   -1.0625    0.0000 C   0  0  2  0  0  0           0  0  0
   -2.4833    0.1958    0.0000 C   0  0  3  0  0  0           0  0  0
   -1.0583   -0.6375    0.0000 N   0  0  3  0  0  0           0  0  0
    1.7875   -2.2917    0.0000 C   0  0  0  0  0  0           0  0  0
    1.7875   -3.1167    0.0000 C   0  0  0  0  0  0           0  0  0
    1.8042    0.1708    0.0000 N   0  0  0  0  0  0           0  0  0
   -3.1958    3.0875    0.0000 C   0  0  0  0  0  0           0  0  0
    0.3667   -0.6417    0.0000 C   0  0  0  0  0  0           0  0  0
    4.6542    0.1583    0.0000 C   0  0  0  0  0  0           0  0  0
    5.3667   -1.0875    0.0000 C   0  0  0  0  0  0           0  0  0
   -2.4833    1.8458    0.0000 O   0  0  0  0  0  0           0  0  0
   -3.9083    2.6750    0.0000 C   0  0  0  0  0  0           0  0  0
   -2.4833   -0.6292    0.0000 C   0  0  0  0  0  0           0  0  0
   -1.7708    0.6083    0.0000 C   0  0  0  0  0  0           0  0  0
    1.0667   -3.5292    0.0000 C   0  0  0  0  0  0           0  0  0
    3.9375   -1.9000    0.0000 O   0  0  0  0  0  0           0  0  0
    6.0792   -0.6792    0.0000 C   0  0  0  0  0  0           0  0  0
    5.3667    0.5625    0.0000 C   0  0  0  0  0  0           0  0  0
    6.0875    0.1458    0.0000 C   0  0  0  0  0  0           0  0  0
    0.3625   -2.2917    0.0000 C   0  0  0  0  0  0           0  0  0
   -3.1958    3.9208    0.0000 O   0  0  0  0  0  0           0  0  0
   -0.3458   -1.0542    0.0000 C   0  0  0  0  0  0           0  0  0
    0.3542   -3.1167    0.0000 C   0  0  0  0  0  0           0  0  0
   -1.7833   -1.0417    0.0000 C   0  0  0  0  0  0           0  0  0
   -1.0583    0.1875    0.0000 C   0  0  0  0  0  0           0  0  0
   -2.4833    2.6750    0.0000 N   0  0  0  0  0  0           0  0  0
   -3.9083    0.2000    0.0000 C   0  0  0  0  0  0           0  0  0
    2.5000   -3.5292    0.0000 Cl  0  0  0  0  0  0           0  0  0
    1.0667   -4.3542    0.0000 Cl  0  0  0  0  0  0           0  0  0
    5.3667    1.3875    0.0000 Cl  0  0  0  0  0  0           0  0  0
    6.7917   -1.0917    0.0000 Cl  0  0  0  0  0  0           0  0  0
    2.5167    0.5833    0.0000 O   0  0  0  0  0  0           0  0  0
    3.2292    0.1625    0.0000 C   0  0  0  0  0  0           0  0  0
   -4.6208    1.4333    0.0000 C   0  0  0  0  0  0           0  0  0
   -4.6208    0.6083    0.0000 C   0  0  0  0  0  0           0  0  0
    3.2375    0.9833    0.0000 C   0  0  0  0  0  0           0  0  0
  2  1  1  0     0  0
  3  6  1  0     0  0
  4 10  1  0     0  0
  5  3  1  0     0  0
  6  9  1  0     0  0
  7  1  1  0     0  0
 10  8  1  6     0  0
  9  4  1  0     0  0
 10 17  1  0     0  0
 11  2  1  0     0  0
 12 34  1  0     0  0
 13  8  1  0     0  0
 14 13  2  0     0  0
 15  4  2  0     0  0
 16 21  1  0     0  0
 17 31  1  0     0  0
 18  5  1  0     0  0
 19  5  2  0     0  0
 20  1  2  0     0  0
  7 21  1  0     0  0
 22 11  1  0     0  0
 23 11  1  0     0  0
 24 32  2  0     0  0
 25  3  2  0     0  0
 26 19  1  0     0  0
 27 18  2  0     0  0
 28 26  2  0     0  0
 29  8  2  0     0  0
 30 16  2  0     0  0
 31 12  1  0     0  0
 32 29  1  0     0  0
 33 22  1  0     0  0
 34 23  1  0     0  0
 35 16  1  0     0  0
 36  2  1  0     0  0
 37 14  1  0     0  0
 38 24  1  0     0  0
 39 27  1  0     0  0
 40 26  1  0     0  0
 41 15  1  0     0  0
 42  6  1  0     0  0
 43  7  1  0     0  0
 44 43  1  0     0  0
 45 41  1  0     0  0
 36 44  1  0     0  0
 33 12  1  0     0  0
 14 24  1  0     0  0
 28 27  1  0     0  0
M  END