
          11280714542D 1   1.00000     0.00000     0

 28 29  0     0  0            999 V2000
    0.8417   -5.8792    0.0000 C   0  0  0  0  0  0           0  0  0
    1.3625   -6.1750    0.0000 N   0  0  0  0  0  0           0  0  0
    1.8792   -5.8750    0.0000 C   0  0  0  0  0  0           0  0  0
    0.3250   -6.1792    0.0000 C   0  0  0  0  0  0           0  0  0
    6.3000   -5.6125    0.0000 C   0  0  0  0  0  0           0  0  0
    5.7000   -5.6250    0.0000 C   0  0  0  0  0  0           0  0  0
    4.0042   -5.8667    0.0000 N   0  0  3  0  0  0           0  0  0
    2.9167   -5.8667    0.0000 C   0  0  3  0  0  0           0  0  0
    2.4042   -6.1667    0.0000 O   0  0  0  0  0  0           0  0  0
    3.4625   -6.1792    0.0000 C   0  0  0  0  0  0           0  0  0
    0.8375   -5.2792    0.0000 O   0  0  0  0  0  0           0  0  0
   -0.1958   -5.8792    0.0000 C   0  0  0  0  0  0           0  0  0
    2.9167   -5.2292    0.0000 C   0  0  3  0  0  0           0  0  0
    1.8792   -5.2750    0.0000 O   0  0  0  0  0  0           0  0  0
    6.5875   -5.0875    0.0000 O   0  0  0  0  0  0           0  0  0
    5.3875   -5.1125    0.0000 O   0  0  0  0  0  0           0  0  0
    3.4625   -4.9167    0.0000 C   0  0  0  0  0  0           0  0  0
    3.5792   -5.3917    0.0000 C   0  0  0  0  0  0           0  0  0
    4.0042   -5.2292    0.0000 C   0  0  0  0  0  0           0  0  0
    3.1375   -5.7500    0.0000 C   0  0  0  0  0  0           0  0  0
    6.6042   -6.1250    0.0000 O   0  0  0  0  0  0           0  0  0
    5.4125   -6.1500    0.0000 O   0  0  0  0  0  0           0  0  0
    0.3250   -6.7875    0.0000 C   0  0  0  0  0  0           0  0  0
   -0.2000   -5.2792    0.0000 O   0  0  0  0  0  0           0  0  0
   -0.7125   -6.1792    0.0000 C   0  0  0  0  0  0           0  0  0
   -0.7208   -4.9875    0.0000 C   0  0  0  0  0  0           0  0  0
   -0.1958   -7.0875    0.0000 C   0  0  0  0  0  0           0  0  0
   -0.7125   -6.7875    0.0000 C   0  0  0  0  0  0           0  0  0
  2  1  1  0     0  0
  3  2  1  0     0  0
  4  1  1  0     0  0
  6  5  1  0     0  0
  7 10  1  0     0  0
  8  9  1  0     0  0
  9  3  1  0     0  0
 10  8  1  0     0  0
 11  1  2  0     0  0
 12  4  2  0     0  0
 13  8  1  0     0  0
 14  3  2  0     0  0
 15  5  2  0     0  0
 16  6  2  0     0  0
 17 13  1  0     0  0
 18 13  1  0     0  0
 19 17  1  0     0  0
 20 18  1  0     0  0
 21  5  1  0     0  0
 22  6  1  0     0  0
 23  4  1  0     0  0
 24 12  1  0     0  0
 25 12  1  0     0  0
 26 24  1  0     0  0
 27 23  2  0     0  0
 28 27  1  0     0  0
 28 25  2  0     0  0
 20  7  1  0     0  0
 19  7  1  0     0  0
M  END