
          11280714502D 1   1.00000     0.00000     0

 19 20  0     0  0            999 V2000
   -0.9083   -1.1125    0.0000 C   0  0  0  0  0  0           0  0  0
   -1.6208   -1.5250    0.0000 C   0  0  0  0  0  0           0  0  0
   -0.1958   -1.5292    0.0000 C   0  0  0  0  0  0           0  0  0
   -1.6208   -2.3500    0.0000 C   0  0  0  0  0  0           0  0  0
    0.5167   -1.1167    0.0000 O   0  0  0  0  0  0           0  0  0
   -0.1958   -2.3417    0.0000 C   0  0  0  0  0  0           0  0  0
    3.3667   -1.1042    0.0000 N   0  0  0  0  0  0           0  0  0
   -0.9000   -2.7542    0.0000 C   0  0  0  0  0  0           0  0  0
    1.9417   -1.1125    0.0000 C   0  0  3  0  0  0           0  0  0
    1.2292   -1.5250    0.0000 C   0  0  0  0  0  0           0  0  0
    2.6542   -1.5167    0.0000 C   0  0  0  0  0  0           0  0  0
   -1.0750   -0.3125    0.0000 C   0  0  0  0  0  0           0  0  0
   -2.2250   -0.9750    0.0000 C   0  0  0  0  0  0           0  0  0
    1.9417   -0.2875    0.0000 O   0  0  0  0  0  0           0  0  0
   -1.8958   -0.2167    0.0000 C   0  0  0  0  0  0           0  0  0
    4.0792   -1.5167    0.0000 C   0  0  3  0  0  0           0  0  0
   -2.3333   -2.7625    0.0000 C   0  0  0  0  0  0           0  0  0
    4.7917   -1.1000    0.0000 C   0  0  0  0  0  0           0  0  0
    4.0792   -2.3417    0.0000 C   0  0  0  0  0  0           0  0  0
  2  1  1  0     0  0
  3  1  2  0     0  0
  4  2  2  0     0  0
  5  3  1  0     0  0
  6  3  1  0     0  0
  7 11  1  0     0  0
  8  6  2  0     0  0
  9 10  1  0     0  0
 10  5  1  0     0  0
 11  9  1  0     0  0
 12  1  1  0     0  0
 13  2  1  0     0  0
 14  9  1  0     0  0
 15 12  1  0     0  0
 16  7  1  0     0  0
 17  4  1  0     0  0
 18 16  1  0     0  0
 19 16  1  0     0  0
 15 13  1  0     0  0
  4  8  1  0     0  0
M  END