
  SciTegic02211115552D

 16 18  0  0  0  0            999 V2000
    6.4481   -6.5697    0.0000 C   0  0
    6.9378   -7.2360    0.0000 C   0  0
    6.9267   -5.8939    0.0000 N   0  0
    7.7175   -6.1418    0.0000 C   0  0
    7.7209   -6.9669    0.0000 C   0  0
    8.4371   -7.3729    0.0000 N   0  0
    9.1493   -6.9590    0.0000 C   0  0
    9.1379   -6.1295    0.0000 N   0  0
    8.4211   -5.7272    0.0000 C   0  0
    8.4141   -4.8986    0.0000 O   0  0
    6.5187   -7.9474    0.0000 C   0  0
    5.6940   -7.9401    0.0000 N   0  0
    5.2143   -7.2693    0.0000 C   0  0
    4.4277   -7.5172    0.0000 C   0  0
    4.4204   -8.3421    0.0000 C   0  0
    5.2025   -8.6037    0.0000 C   0  0
  4  5  2  0
  2  5  1  0
  5  6  1  0
  4  3  1  0
  6  7  2  0
  3  1  1  0
  2 11  1  0
  7  8  1  0
 11 12  1  0
 12 13  1  0
  8  9  1  0
  9  4  1  0
  1  2  2  0
  9 10  2  0
 13 14  1  0
 14 15  1  0
 15 16  1  0
 16 12  1  0
M  END