
  SciTegic11201309402D

 79 82  0  0  1  0            999 V2000
    9.6792   -7.4375    0.0000 N   0  0
    8.9375   -7.8792    0.0000 C   0  0
   11.1250   -6.4292    0.0000 C   0  0
   10.4042   -6.9792    0.0000 C   0  0  1  0  0  0
    6.6917   -7.4792    0.0000 C   0  0
   -0.0583   -7.9125    0.0000 C   0  0
    2.1917   -7.4792    0.0000 C   0  0
    4.4417   -7.9125    0.0000 C   0  0
    5.1917   -7.4792    0.0000 N   0  0
    0.6917   -7.4792    0.0000 N   0  0
    7.4417   -7.9125    0.0000 N   0  0
   10.9500   -5.4917    0.0000 N   0  0
    5.9417   -7.9125    0.0000 C   0  0  1  0  0  0
    2.9417   -7.9125    0.0000 N   0  0
    5.9417   -8.7792    0.0000 C   0  0
    1.4417   -7.9125    0.0000 C   0  0  1  0  0  0
    8.1792   -7.4667    0.0000 C   0  0  1  0  0  0
   -0.8000   -7.4792    0.0000 C   0  0  2  0  0  0
   15.4292   -5.8667    0.0000 C   0  0
   -1.5500   -8.7792    0.0000 C   0  0
   -1.5500   -7.9125    0.0000 N   0  0
   11.8000   -4.2667    0.0000 C   0  0
    3.6917   -7.4792    0.0000 C   0  0  1  0  0  0
    5.7250   -9.5750    0.0000 C   0  0
   11.7292   -5.1250    0.0000 C   0  0  2  0  0  0
    4.4417   -5.3542    0.0000 C   0  0
   16.2125   -5.5000    0.0000 N   0  0
    8.9542   -8.7500    0.0000 O   0  0
   11.9375   -6.7667    0.0000 O   0  0
    2.1917   -6.6167    0.0000 O   0  0
    6.6917   -6.6167    0.0000 O   0  0
   -0.0583   -8.7792    0.0000 O   0  0
    4.4417   -8.7792    0.0000 O   0  0
   -0.8000   -6.6167    0.0000 C   0  0
    1.4417   -8.7792    0.0000 C   0  0
   11.0917   -3.7667    0.0000 O   0  0
   -0.8000   -9.2125    0.0000 O   0  0
    4.9250   -9.7792    0.0000 O   0  0
    5.1542   -4.9417    0.0000 O   0  0
    3.6917   -6.6167    0.0000 C   0  0
   14.7167   -5.3750    0.0000 N   0  0
   -2.2708   -9.1917    0.0000 C   0  0
   15.3542   -6.7292    0.0000 N   0  0
   12.5875   -3.8917    0.0000 N   0  0
    9.8917   -8.2750    0.0000 C   0  0
    6.3000  -10.1625    0.0000 N   0  0
    4.4417   -6.1792    0.0000 C   0  0
    3.7250   -4.9417    0.0000 N   0  0
   -0.0583   -6.1792    0.0000 C   0  0
    1.4417   -5.3167    0.0000 C   0  0
    2.1917   -9.2125    0.0000 C   0  0
   -2.2708  -10.0167    0.0000 C   0  0
   -0.0583   -5.3167    0.0000 C   0  0
    0.6917   -6.6167    0.0000 C   0  0
    6.6875   -4.1917    0.0000 N   0  0
    1.4417   -6.1792    0.0000 C   0  0
    0.6917   -4.8875    0.0000 C   0  0
   11.0750   -7.5292    0.0000 C   0  0
    2.1917   -4.8875    0.0000 O   0  0
   10.7542   -8.3292    0.0000 C   0  0
    8.1625   -6.6417    0.0000 C   0  0
   12.4417   -5.6167    0.0000 C   0  0
   13.9292   -5.7417    0.0000 C   0  0
    6.7042   -5.0167    0.0000 C   0  0
    2.1917   -4.0167    0.0000 C   0  0
    2.1917  -10.0750    0.0000 C   0  0
    2.9417   -8.7792    0.0000 C   0  0
   -1.5583  -10.4250    0.0000 C   0  0
   -2.9833  -10.4250    0.0000 C   0  0
   13.2167   -5.2542    0.0000 C   0  0
    7.4417   -6.2417    0.0000 C   0  0
    7.4250   -5.4167    0.0000 C   0  0
    2.9417   -3.5875    0.0000 C   0  0
   -2.9875  -11.2500    0.0000 C   0  0
   -1.5583  -11.2417    0.0000 C   0  0
    3.6917   -9.2125    0.0000 C   0  0
    2.9417  -10.5042    0.0000 C   0  0
    3.6917  -10.0750    0.0000 C   0  0
   -2.2708  -11.6625    0.0000 C   0  0
  2  1  1  0
  4  3  1  1
  4  1  1  0
  5 11  1  0
  6 10  1  0
  7 14  1  0
  8  9  1  0
 13  9  1  6
 16 10  1  6
 17 11  1  1
 12  3  1  0
 13  5  1  0
 23 14  1  1
 13 15  1  0
 16  7  1  0
 17  2  1  0
 18  6  1  0
 19 41  2  0
 20 21  1  0
 18 21  1  6
 22 25  1  0
 23  8  1  0
 24 15  1  0
 25 12  1  6
 26 47  1  0
 27 19  1  0
 28  2  2  0
 29  3  2  0
 30  7  2  0
 31  5  2  0
 32  6  2  0
 33  8  2  0
 18 34  1  0
 16 35  1  0
 36 22  2  0
 37 20  2  0
 38 24  2  0
 39 26  2  0
 23 40  1  0
 41 63  1  0
 42 20  1  0
 43 19  1  0
 44 22  1  0
 45  1  1  0
 46 24  1  0
 47 40  1  0
 48 26  1  0
 49 34  1  0
 50 56  2  0
 51 35  1  0
 52 42  1  0
 53 49  1  0
 54 49  2  0
 55 64  1  0
 56 54  1  0
 57 53  2  0
  4 58  1  0
 59 50  1  0
 60 45  1  0
 17 61  1  0
 25 62  1  0
 63 70  1  0
 64 72  1  0
 65 59  1  0
 66 51  2  0
 67 51  1  0
 68 52  1  0
 69 52  2  0
 70 62  1  0
 71 61  1  0
 72 71  1  0
 73 65  1  0
 74 69  1  0
 75 68  2  0
 76 67  2  0
 77 66  1  0
 78 76  1  0
 79 74  2  0
 60 58  1  0
 78 77  2  0
 57 50  1  0
 79 75  1  0
M  END