
  SciTegic05161209552D

 29 31  0  0  0  0            999 V2000
    1.3588    5.4800    0.0000 C   0  0
    0.6443    5.0675    0.0000 C   0  0
    0.6443    4.2425    0.0000 C   0  0
    1.3588    3.8300    0.0000 C   0  0
    2.0733    4.2425    0.0000 C   0  0
    2.0733    5.0675    0.0000 C   0  0
    1.3588    6.3050    0.0000 Cl  0  0
    1.3588    3.0050    0.0000 C   0  0
    0.6443    2.5925    0.0000 N   0  0
    0.6443    1.7675    0.0000 C   0  0
   -0.0702    3.0050    0.0000 C   0  0
   -0.7847    2.5925    0.0000 C   0  0
   -1.5383    2.9281    0.0000 S   0  0
   -2.0903    2.3150    0.0000 C   0  0
   -1.6778    1.6005    0.0000 C   0  0
   -0.8709    1.7720    0.0000 C   0  0
   -2.9108    2.4012    0.0000 N   0  3
   -3.3957    1.7338    0.0000 O   0  5
   -3.2464    3.1549    0.0000 O   0  0
    1.3588    1.3550    0.0000 C   0  0
    1.4450    0.5345    0.0000 C   0  0
    2.2519    0.3630    0.0000 N   0  0
    2.6644    1.0775    0.0000 C   0  0
    2.1124    1.6906    0.0000 C   0  0
    2.5875   -0.3907    0.0000 C   0  0
    3.4080   -0.4769    0.0000 O   0  0
    2.1026   -1.0581    0.0000 O   0  0
    3.7435   -1.2306    0.0000 C   0  0
    4.5640   -1.3168    0.0000 C   0  0
  1  2  1  0
  1  6  2  0
  2  3  2  0
  3  4  1  0
  4  5  2  0
  5  6  1  0
  1  7  1  0
  4  8  1  0
  8  9  1  0
  9 10  1  0
  9 11  1  0
 11 12  1  0
 12 13  1  0
 12 16  2  0
 13 14  1  0
 14 15  2  0
 15 16  1  0
 14 17  1  0
 17 18  1  0
 17 19  2  0
 10 20  1  0
 20 21  1  0
 20 24  1  0
 21 22  1  0
 22 23  1  0
 23 24  1  0
 22 25  1  0
 25 26  1  0
 25 27  2  0
 26 28  1  0
 28 29  1  0
M  CHG  2  17   1  18  -1
M  END