
          08180812482D 1   1.00000     0.00000     0

 40 44  0     0  0            999 V2000
    3.0319   -1.2625    0.0000 C   0  0  0  0  0  0           0  0  0
    3.0307   -2.0898    0.0000 C   0  0  0  0  0  0           0  0  0
    3.7456   -2.5027    0.0000 C   0  0  0  0  0  0           0  0  0
    3.7438   -0.8497    0.0000 C   0  0  0  0  0  0           0  0  0
    4.4640   -2.0869    0.0000 C   0  0  0  0  0  0           0  0  0
    4.4591   -1.2588    0.0000 C   0  0  0  0  0  0           0  0  0
    5.1062   -0.7329    0.0000 N   0  0  3  0  0  0           0  0  0
    5.1202   -2.6014    0.0000 N   0  0  3  0  0  0           0  0  0
    5.9184   -0.9072    0.0000 C   0  0  0  0  0  0           0  0  0
    5.9309   -2.4084    0.0000 C   0  0  0  0  0  0           0  0  0
    6.2832   -1.6536    0.0000 N   0  0  3  0  0  0           0  0  0
    6.4521   -3.0478    0.0000 O   0  0  0  0  0  0           0  0  0
    6.4267   -0.2574    0.0000 O   0  0  0  0  0  0           0  0  0
    4.9137    0.0693    0.0000 C   0  0  0  0  0  0           0  0  0
    5.5122    0.6371    0.0000 C   0  0  0  0  0  0           0  0  0
    5.3197    1.4394    0.0000 N   0  0  3  0  0  0           0  0  0
    6.3032    0.4028    0.0000 O   0  0  0  0  0  0           0  0  0
    7.1082   -1.6463    0.0000 C   0  0  0  0  0  0           0  0  0
    7.5143   -0.9281    0.0000 C   0  0  0  0  0  0           0  0  0
    8.3392   -0.9208    0.0000 N   0  0  0  0  0  0           0  0  0
    7.0954   -0.2174    0.0000 O   0  0  0  0  0  0           0  0  0
    8.7453   -0.2026    0.0000 C   0  0  0  0  0  0           0  0  0
    9.5688   -0.1976    0.0000 C   0  0  0  0  0  0           0  0  0
    9.9748    0.5197    0.0000 C   0  0  0  0  0  0           0  0  0
    9.5559    1.2314    0.0000 C   0  0  0  0  0  0           0  0  0
    8.7267    1.2214    0.0000 C   0  0  0  0  0  0           0  0  0
    8.3244    0.5036    0.0000 C   0  0  0  0  0  0           0  0  0
    4.9437   -3.4073    0.0000 C   0  0  0  0  0  0           0  0  0
    4.1581   -3.6522    0.0000 C   0  0  0  0  0  0           0  0  0
    3.9814   -4.4573    0.0000 C   0  0  0  0  0  0           0  0  0
    4.5915   -5.0140    0.0000 C   0  0  0  0  0  0           0  0  0
    5.3809   -4.7600    0.0000 C   0  0  0  0  0  0           0  0  0
    5.5538   -3.9555    0.0000 C   0  0  0  0  0  0           0  0  0
    5.8579    2.0662    0.0000 C   0  0  0  0  0  0           0  0  0
    5.4269    2.7697    0.0000 C   0  0  0  0  0  0           0  0  0
    4.6246    2.5772    0.0000 C   0  0  0  0  0  0           0  0  0
    4.5599    1.7547    0.0000 C   0  0  0  0  0  0           0  0  0
   10.7998    0.5267    0.0000 C   0  0  0  0  0  0           0  0  0
   11.2183   -0.1843    0.0000 O   0  0  0  0  0  0           0  0  0
   11.2062    1.2446    0.0000 O   0  0  0  0  0  0           0  0  0
  4  1  1  0     0  0
 19 20  1  0     0  0
  8 10  1  0     0  0
 19 21  2  0     0  0
 20 22  1  0     0  0
  9 11  1  0     0  0
 22 23  2  0     0  0
 10 11  1  0     0  0
 23 24  1  0     0  0
  2  3  1  0     0  0
 24 25  2  0     0  0
 10 12  2  0     0  0
 25 26  1  0     0  0
  5  6  1  0     0  0
 26 27  2  0     0  0
 27 22  1  0     0  0
  9 13  2  0     0  0
  8 28  1  0     0  0
  3  5  2  0     0  0
 28 29  2  0     0  0
  7 14  1  0     0  0
 29 30  1  0     0  0
  6  7  1  0     0  0
 30 31  2  0     0  0
 14 15  1  0     0  0
 31 32  1  0     0  0
  1  2  2  0     0  0
 32 33  2  0     0  0
 33 28  1  0     0  0
 16 34  1  0     0  0
 15 16  1  0     0  0
  5  8  1  0     0  0
 15 17  2  0     0  0
  6  4  2  0     0  0
 34 35  1  0     0  0
 35 36  1  0     0  0
 36 37  1  0     0  0
 37 16  1  0     0  0
 11 18  1  0     0  0
 24 38  1  0     0  0
  7  9  1  0     0  0
 38 39  1  0     0  0
 18 19  1  0     0  0
 38 40  2  0     0  0
M  END