
  SciTegic12151613592D

 31 34  0  0  0  0            999 V2000
   -2.6437   -0.3882    0.0000 C   0  0
   -2.6437    1.1277    0.0000 C   0  0
   -1.3126    1.8857    0.0000 C   0  0
   -1.3126   -1.1462    0.0000 C   0  0
    0.9429    2.0521    0.0000 C   0  0
    0.0000    1.1277    0.0000 C   0  0
    0.0000   -0.3882    0.0000 C   0  0
    2.4219    1.7563    0.0000 N   0  0
    3.0874    0.3143    0.0000 C   0  0  2  0  0  0
    0.5151    3.4906    0.0000 C   0  0
    1.5708    4.5587    0.0000 C   0  0
    1.1747    6.0055    0.0000 C   0  0
   -0.2763    6.3858    0.0000 C   0  0
   -1.3312    5.3194    0.0000 C   0  0
   -0.9351    3.8727    0.0000 C   0  0
   -0.5932    7.5433    0.0000 Cl  0  0
    0.8689   -1.3311    0.0000 N   0  0
    2.3849   -1.0353    0.0000 C   0  0
    3.1059   -2.4034    0.0000 N   0  0
    2.0706   -3.4942    0.0000 N   0  0
    0.6840   -2.8471    0.0000 C   0  0
   -0.3653   -3.4291    0.0000 C   0  0
    3.8167    1.5972    0.0000 C   0  0  2  0  0  0
    3.0979    2.9148    0.0000 C   0  0
    3.8788    4.1965    0.0000 O   0  0
    1.8983    2.9434    0.0000 O   0  0
    3.3041    5.2499    0.0000 C   0  0
   -3.9415    1.8809    0.0000 O   0  0
   -3.9397    3.0809    0.0000 C   0  0
    5.0163    1.5686    0.0000 C   0  0
    3.5398   -0.5775    0.0000 H   0  0
  1  2  2  0
  2  3  1  0
  3  6  2  0
  7  4  2  0
  4  1  1  0
  5  6  1  0
  6  7  1  0
  7 17  1  0
  5  8  2  0
  8  9  1  0
 18  9  1  0
  5 10  1  0
 10 11  2  0
 11 12  1  0
 12 13  2  0
 13 14  1  0
 14 15  2  0
 15 10  1  0
 13 16  1  0
 17 18  1  0
 18 19  2  0
 19 20  1  0
 20 21  2  0
 21 17  1  0
 21 22  1  0
  9 23  1  0
 23 24  1  0
 24 25  1  0
 24 26  2  0
 25 27  1  0
  2 28  1  0
 28 29  1  0
 23 30  1  6
  9 31  1  6
M  END