
  SciTegic06011109532D

 40 44  0  0  0  0            999 V2000
   -0.6281  -14.4491    0.0000 C   0  0  1  0  0  0
    0.0322  -14.9437    0.0000 N   0  0
    0.0317  -15.7656    0.0000 C   0  0
    0.7435  -16.1756    0.0000 C   0  0
    1.4590  -15.7642    0.0000 N   0  0
    1.4582  -14.9381    0.0000 C   0  0
    0.7419  -14.5235    0.0000 C   0  0  2  0  0  0
    2.1713  -16.1733    0.0000 C   0  0
    2.1689  -16.9992    0.0000 C   0  0
    2.8792  -17.4119    0.0000 C   0  0
    3.5963  -17.0032    0.0000 N   0  0
    3.5986  -16.1773    0.0000 C   0  0
    2.8838  -15.7600    0.0000 C   0  0
    2.1638  -15.3449    0.0000 C   0  0
    4.3090  -17.4188    0.0000 C   0  0
    4.3056  -18.2438    0.0000 O   0  0
    5.0252  -17.0092    0.0000 C   0  0
    5.7346  -17.4273    0.0000 C   0  0
    6.4503  -17.0184    0.0000 N   0  0
    6.4541  -16.1925    0.0000 C   0  0
    5.7364  -15.7772    0.0000 N   0  0
    5.0236  -16.1884    0.0000 C   0  0
    4.3087  -15.7765    0.0000 C   0  0
    5.7289  -18.2523    0.0000 C   0  0
    0.7377  -13.6985    0.0000 C   0  0
   -0.6185  -13.6261    0.0000 C   0  0  1  0  0  0
   -1.3993  -13.3599    0.0000 C   0  0
   -1.4187  -14.6946    0.0000 C   0  0
   -1.8906  -14.0196    0.0000 C   0  0
   -2.7091  -14.0917    0.0000 C   0  0
   -3.0567  -14.8380    0.0000 C   0  0
   -2.5798  -15.5132    0.0000 C   0  0
   -1.7629  -15.4378    0.0000 C   0  0
   -3.8784  -14.9118    0.0000 C   0  0
   -4.3532  -14.2370    0.0000 F   0  0
   -4.2254  -15.6603    0.0000 F   0  0
   -4.7050  -14.9090    0.0000 F   0  0
    0.0553  -13.1501    0.0000 O   0  0
   -0.0202  -12.3284    0.0000 C   0  0
    0.6536  -11.8524    0.0000 C   0  0
  2  7  1  0
 19 20  2  0
  3  4  1  0
 20 21  1  0
  4  5  1  0
 21 22  2  0
 22 17  1  0
  8 13  1  0
 22 23  1  0
  9 10  1  0
 18 24  1  0
 10 11  1  0
  7 25  1  1
  1 26  1  0
 11 12  1  0
 12 13  1  0
 26 27  1  0
 27 29  1  0
 28  1  1  0
  5  8  1  0
  5  6  1  0
 28 29  2  0
  8 14  1  0
 29 30  1  0
  6  7  1  0
 30 31  2  0
 11 15  1  0
 31 32  1  0
  8  9  1  0
 32 33  2  0
 33 28  1  0
 15 16  2  0
 31 34  1  0
  2  3  1  0
 34 35  1  0
 15 17  1  0
 34 36  1  0
 34 37  1  0
 17 18  2  0
 26 38  1  1
  1  2  1  6
 38 39  1  0
 18 19  1  0
 39 40  1  0
M  END