
  Mrv0541 05211314572D          

 29 30  0  0  0  0            999 V2000
    0.1632   -1.1971    0.0000 O   0  0  0  0  0  0  0  0  0  0  0  0
    0.1632   -0.3721    0.0000 C   0  0  0  0  0  0  0  0  0  0  0  0
   -0.5513    0.0404    0.0000 N   0  0  0  0  0  0  0  0  0  0  0  0
   -1.2658   -0.3721    0.0000 C   0  0  0  0  0  0  0  0  0  0  0  0
   -1.9802    0.0404    0.0000 C   0  0  0  0  0  0  0  0  0  0  0  0
   -2.6947   -0.3721    0.0000 C   0  0  0  0  0  0  0  0  0  0  0  0
   -2.7809   -1.1926    0.0000 N   0  0  0  0  0  0  0  0  0  0  0  0
   -3.5879   -1.3641    0.0000 C   0  0  0  0  0  0  0  0  0  0  0  0
   -4.0004   -0.6496    0.0000 C   0  0  0  0  0  0  0  0  0  0  0  0
   -3.4484   -0.0365    0.0000 N   0  0  0  0  0  0  0  0  0  0  0  0
    0.8777    0.0404    0.0000 C   0  0  0  0  0  0  0  0  0  0  0  0
    1.5921   -0.3721    0.0000 C   0  0  0  0  0  0  0  0  0  0  0  0
    2.3066    0.0404    0.0000 C   0  0  0  0  0  0  0  0  0  0  0  0
    3.0211   -0.3721    0.0000 C   0  0  0  0  0  0  0  0  0  0  0  0
    3.0211   -1.1971    0.0000 C   0  0  0  0  0  0  0  0  0  0  0  0
    2.3066   -1.6096    0.0000 C   0  0  0  0  0  0  0  0  0  0  0  0
    1.5921   -1.1971    0.0000 C   0  0  0  0  0  0  0  0  0  0  0  0
    0.8777    0.8654    0.0000 C   0  0  0  0  0  0  0  0  0  0  0  0
    0.1632    1.2779    0.0000 C   0  0  0  0  0  0  0  0  0  0  0  0
    0.1632    2.1029    0.0000 C   0  0  0  0  0  0  0  0  0  0  0  0
    0.8777    2.5154    0.0000 C   0  0  0  0  0  0  0  0  0  0  0  0
    1.5921    2.1029    0.0000 C   0  0  0  0  0  0  0  0  0  0  0  0
    1.5921    1.2779    0.0000 C   0  0  0  0  0  0  0  0  0  0  0  0
    5.9675    1.0717    0.0000 O   0  0  0  0  0  0  0  0  0  0  0  0
    6.3800    0.3572    0.0000 C   0  0  0  0  0  0  0  0  0  0  0  0
    7.2050    0.3572    0.0000 O   0  0  0  0  0  0  0  0  0  0  0  0
    5.9675   -0.3572    0.0000 C   0  0  0  0  0  0  0  0  0  0  0  0
    6.3800   -1.0717    0.0000 O   0  0  0  0  0  0  0  0  0  0  0  0
    5.1425   -0.3572    0.0000 O   0  0  0  0  0  0  0  0  0  0  0  0
  1  2  2  0  0  0  0
  2  3  1  0  0  0  0
  3  4  1  0  0  0  0
  4  5  1  0  0  0  0
  5  6  1  0  0  0  0
  6  7  2  0  0  0  0
  7  8  1  0  0  0  0
  8  9  2  0  0  0  0
  9 10  1  0  0  0  0
 10  6  1  0  0  0  0
  2 11  1  0  0  0  0
 11 12  1  0  0  0  0
 12 13  1  0  0  0  0
 13 14  1  0  0  0  0
 14 15  1  0  0  0  0
 15 16  1  0  0  0  0
 16 17  1  0  0  0  0
 17 12  1  0  0  0  0
 11 18  1  0  0  0  0
 18 19  2  0  0  0  0
 19 20  1  0  0  0  0
 20 21  2  0  0  0  0
 21 22  1  0  0  0  0
 22 23  2  0  0  0  0
 23 18  1  0  0  0  0
 24 25  1  0  0  0  0
 25 26  2  0  0  0  0
 25 27  1  0  0  0  0
 27 28  2  0  0  0  0
 27 29  1  0  0  0  0
M  END