
  SciTegic05071317052D

 29 28  0  0  0  0            999 V2000
   16.4582   -4.5875    0.0000 C   0  0
   16.4582   -5.4125    0.0000 C   0  0
   17.1701   -5.8207    0.0000 N   0  0
   17.8822   -5.4125    0.0000 C   0  0
   17.8822   -4.5875    0.0000 C   0  0
   17.1701   -4.1708    0.0000 N   0  0
   17.1705   -3.3455    0.0000 C   0  0
   17.8379   -2.8606    0.0000 N   0  0
   17.5831   -2.0755    0.0000 C   0  0
   16.7580   -2.0760    0.0000 C   0  0
   16.5032   -2.8606    0.0000 S   0  0
   17.9829   -1.3538    0.0000 C   0  0
   18.8077   -1.3392    0.0000 C   0  0
   19.2075   -0.6175    0.0000 N   0  0
   20.0324   -0.6029    0.0000 C   0  0
   18.7824    0.0938    0.0000 C   0  0
   17.1701   -6.6457    0.0000 C   0  0
   16.4557   -7.0582    0.0000 C   0  0
   16.4557   -7.8832    0.0000 C   0  0
   19.1822    0.8138    0.0000 C   0  0
   18.7570    1.5234    0.0000 C   0  0
   19.1575    2.2455    0.0000 C   0  0
   18.7331    2.9473    0.0000 C   0  0
   17.9074    2.9365    0.0000 C   0  0
   17.5079    2.2048    0.0000 C   0  0
   17.9347    1.5001    0.0000 C   0  0
   21.5129   -2.2619    0.0000 Br  0  0
   20.3893   -3.7125    0.0000 Br  0  0
   20.3009   -5.5393    0.0000 Br  0  0
  1  2  1  0
  1  6  1  0
  2  3  1  0
  3  4  1  0
  4  5  1  0
  5  6  1  0
  7  8  2  0
  8  9  1  0
  9 10  2  0
 10 11  1  0
 11  7  1  0
  6  7  1  0
  9 12  1  0
 12 13  1  0
 13 14  1  0
 14 15  1  0
 14 16  1  0
  3 17  1  0
 17 18  1  0
 18 19  1  0
 16 20  1  0
 20 21  1  0
 21 22  2  0
 22 23  1  0
 23 24  2  0
 24 25  1  0
 25 26  2  0
 26 21  1  0
M  END