
  SciTegic06181315362D

 32 36  0  0  0  0            999 V2000
    4.5427  -10.2231    0.0000 N   0  0
    4.5415  -11.0468    0.0000 C   0  0
    5.2537  -11.4599    0.0000 C   0  0
    5.9634  -11.0463    0.0000 C   0  0
    5.9605  -10.2195    0.0000 C   0  0
    5.2519   -9.8142    0.0000 C   0  0
    3.8294  -11.4589    0.0000 N   0  0
    3.1178  -11.0457    0.0000 C   0  0
    6.6718  -11.4560    0.0000 N   0  0
    7.9739  -11.7288    0.0000 N   0  0
    7.4220  -11.1183    0.0000 C   0  0
    7.5905  -10.3167    0.0000 C   0  0
    8.3729  -10.0639    0.0000 C   0  0
    8.5458   -9.2609    0.0000 C   0  0
    7.9331   -8.7101    0.0000 C   0  0
    7.1490   -8.9718    0.0000 C   0  0
    6.9839   -9.7741    0.0000 C   0  0
    7.5623  -12.4413    0.0000 C   0  0
    6.7588  -12.2720    0.0000 C   0  0
    6.2145  -12.8789    0.0000 C   0  0
    6.4683  -13.6594    0.0000 C   0  0
    7.2756  -13.8296    0.0000 C   0  0
    7.8206  -13.2173    0.0000 C   0  0
    3.1179  -10.2247    0.0000 C   0  0
    2.4104   -9.8156    0.0000 C   0  0
    1.6959  -10.2202    0.0000 C   0  0
    1.6933  -11.0424    0.0000 C   0  0
    2.4052  -11.4602    0.0000 C   0  0
    9.3268   -9.0075    0.0000 Cl  0  0
    8.1007   -7.9061    0.0000 C   0  0
    7.5327  -14.6095    0.0000 O   0  0
    6.9895  -15.2200    0.0000 C   0  0
  1  2  2  0
  2  3  1  0
  3  4  2  0
  4  5  1  0
  5  6  2  0
  6  1  1  0
  2  7  1  0
  8  7  1  0
  9 19  1  0
 18 10  1  0
 10 11  2  0
 11  9  1  0
  4  9  1  0
 12 13  2  0
 13 14  1  0
 14 15  2  0
 15 16  1  0
 16 17  2  0
 17 12  1  0
 11 12  1  0
 18 19  2  0
 19 20  1  0
 20 21  2  0
 21 22  1  0
 22 23  2  0
 23 18  1  0
  8 24  1  0
  8 28  1  0
 24 25  1  0
 25 26  1  0
 26 27  1  0
 27 28  1  0
 14 29  1  0
 15 30  1  0
 22 31  1  0
 31 32  1  0
M  END