
  SciTegic06051313522D

 32 35  0  0  0  0            999 V2000
    8.7180  -14.3152    0.0000 S   0  0
    9.4313  -14.7296    0.0000 N   0  0
    9.4296  -15.5537    0.0000 C   0  0
   10.1464  -14.3199    0.0000 C   0  0
   10.8598  -14.7343    0.0000 C   0  0
   11.5747  -14.3247    0.0000 C   0  0
   11.5786  -13.4969    0.0000 C   0  0
   10.8652  -13.0825    0.0000 C   0  0
   10.1480  -13.4958    0.0000 N   0  0
   10.8580  -15.5585    0.0000 C   0  0
   10.1495  -15.9799    0.0000 N   0  0
   10.8480  -18.0550    0.0000 C   0  0
   10.8586  -17.2274    0.0000 C   0  0
   10.1487  -16.8071    0.0000 C   0  0
    9.4282  -17.2144    0.0000 C   0  0
    9.4197  -18.0385    0.0000 C   0  0
   10.1297  -18.4588    0.0000 N   0  0
   11.6289  -18.3170    0.0000 N   0  0
   11.6438  -16.9787    0.0000 C   0  0
   12.1216  -17.6544    0.0000 C   0  0
    8.0023  -14.7258    0.0000 C   0  0
    8.1292  -13.7251    0.0000 O   0  0
    9.1250  -13.5959    0.0000 O   0  0
    8.7128  -16.7966    0.0000 C   0  0
    8.0023  -16.3772    0.0000 N   0  0
   12.9439  -17.6638    0.0000 C   0  0
   13.3472  -18.3848    0.0000 C   0  0
   14.1713  -18.3950    0.0000 C   0  0
   14.5932  -17.6850    0.0000 N   0  0
   14.1849  -16.9633    0.0000 C   0  0
   13.3621  -16.9566    0.0000 C   0  0
   14.6034  -16.2522    0.0000 C   0  0
  1  2  1  0
  2  3  1  0
  4  5  1  0
  5  6  2  0
  6  7  1  0
  7  8  2  0
  8  9  1  0
  4  9  2  0
 12 13  1  0
 13 14  2  0
 14 15  1  0
 15 16  2  0
 16 17  1  0
 12 17  2  0
 19 20  2  0
 18 20  1  0
 12 18  1  0
 13 19  1  0
 11 14  1  0
 10 11  1  0
  5 10  1  0
  2  4  1  0
  1 21  1  0
  1 22  2  0
  1 23  2  0
 24 25  3  0
 15 24  1  0
 26 27  2  0
 27 28  1  0
 28 29  2  0
 29 30  1  0
 30 31  2  0
 31 26  1  0
 20 26  1  0
 30 32  1  0
M  END