
  SciTegic01161211252D

 25 25  0  0  0  0            999 V2000
    8.7292    0.1208    0.0000 S   0  0
   -2.2333   -1.0250    0.0000 C   0  0
    5.4292    0.1125    0.0000 C   0  0
    7.9000    0.1208    0.0000 C   0  0
    8.7917   -0.7542    0.0000 O   0  0
    8.7750    0.9333    0.0000 O   0  0
   -2.9500   -0.6167    0.0000 N   0  0
    6.2542    0.1208    0.0000 C   0  0
    9.5542    0.1583    0.0000 N   0  0
   -2.2333   -1.8500    0.0000 O   0  0
    5.0167    0.8250    0.0000 O   0  0
    7.4875   -0.5917    0.0000 C   0  0
    7.4792    0.8333    0.0000 C   0  0
    6.6625   -0.6000    0.0000 C   0  0
    6.6542    0.8333    0.0000 C   0  0
   -1.5208   -0.6125    0.0000 N   0  0
    5.0167   -0.6042    0.0000 N   0  0
    2.7667   -0.6042    0.0000 O   0  0
    0.6250   -1.0167    0.0000 O   0  0
   -0.8083   -1.0250    0.0000 C   0  0
    4.1917   -0.6042    0.0000 C   0  0
   -0.0958   -0.6125    0.0000 C   0  0
    3.4792   -1.0167    0.0000 C   0  0
    1.3375   -0.6042    0.0000 C   0  0
    2.0542   -1.0167    0.0000 C   0  0
  2 16  1  0
  3  8  1  0
  4  1  1  0
  5  1  2  0
  6  1  2  0
  7  2  1  0
  8 15  1  0
  9  1  1  0
 10  2  2  0
 11  3  2  0
 12  4  2  0
 13  4  1  0
 14 12  1  0
 15 13  2  0
 16 20  1  0
 17  3  1  0
 18 23  1  0
 19 24  1  0
 20 22  1  0
 21 17  1  0
 22 19  1  0
 23 21  1  0
 24 25  1  0
 25 18  1  0
  8 14  2  0
M  END