
  SciTegic01161211262D

 67 75  0  0  0  0            999 V2000
    2.0985   -1.4233    0.0000 C   0  0
    1.3966   -1.8642    0.0000 C   0  0
    0.6652   -1.4751    0.0000 C   0  0
    0.6344   -0.6508    0.0000 C   0  0
    1.3365   -0.2099    0.0000 C   0  0
    2.0691   -0.5932    0.0000 C   0  0
   -0.1606   -0.4214    0.0000 C   0  0
    0.2419    0.2986    0.0000 C   0  0
   -0.1803    1.0130    0.0000 C   0  0
    0.2224    1.7390    0.0000 C   0  0
    1.0499    1.7474    0.0000 C   0  0
    1.4751    1.0358    0.0000 C   0  0
    1.0697    0.3129    0.0000 C   0  0
    1.4554    2.4703    0.0000 O   0  0
   -1.0109    1.0017    0.0000 O   0  0
   -1.4165    0.2789    0.0000 C   0  0
   -0.9912   -0.4327    0.0000 C   0  0
   -1.3939   -1.1586    0.0000 C   0  0
   -2.2245   -1.1699    0.0000 C   0  0
   -2.6497   -0.4583    0.0000 C   0  0
   -2.2442    0.2646    0.0000 C   0  0
   -3.4773   -0.4668    0.0000 O   0  0
   -0.6244   -1.1089    0.0000 O   0  0
   -0.1129   -1.7613    0.0000 C   0  0
   -0.3396   -2.5605    0.0000 O   0  0
    2.8274   -1.8095    0.0000 C   0  0
    2.8574   -2.6337    0.0000 O   0  0
    3.5263   -1.3714    0.0000 N   0  0
    4.2552   -1.7576    0.0000 C   0  0
    4.9540   -1.3195    0.0000 C   0  0
    5.6829   -1.7057    0.0000 C   0  0
    6.3818   -1.2676    0.0000 C   0  0
    7.1107   -1.6538    0.0000 C   0  0
    7.8096   -1.2157    0.0000 C   0  0
    8.5384   -1.6019    0.0000 N   0  0
    7.7797   -0.3914    0.0000 O   0  0
    9.2373   -1.1638    0.0000 C   0  0
    9.9662   -1.5500    0.0000 C   0  0
   10.6651   -1.1119    0.0000 S   0  0
   11.3939   -1.4981    0.0000 C   0  0
   11.4239   -2.3225    0.0000 C   0  0  2  0  0  0
   10.7768   -2.8324    0.0000 C   0  0  2  0  0  0
   11.0600   -3.6071    0.0000 C   0  0  2  0  0  0
   11.8845   -3.5772    0.0000 C   0  0  1  0  0  0
   12.1105   -2.7839    0.0000 O   0  0
    9.9833   -2.6073    0.0000 O   0  0
   10.5998   -4.2916    0.0000 O   0  0
   12.5936   -3.9868    0.0000 N   0  0
   13.9230   -4.0120    0.0000 N   0  0
   13.2701   -3.5175    0.0000 C   0  0
   13.6544   -4.7858    0.0000 C   0  0
   12.8389   -4.7685    0.0000 C   0  0
   12.4181   -5.4650    0.0000 N   0  0
   12.8115   -6.1791    0.0000 C   0  0
   13.6301   -6.1925    0.0000 N   0  0
   14.0473   -5.4955    0.0000 C   0  0
   14.8719   -5.5093    0.0000 N   0  0
   15.2724   -6.2304    0.0000 C   0  0
   16.0971   -6.2443    0.0000 C   0  0
   16.4939   -6.9645    0.0000 C   0  0
   17.3178   -6.9787    0.0000 C   0  0
   17.7430   -6.2708    0.0000 C   0  0
   17.3383   -5.5472    0.0000 C   0  0
   16.5157   -5.5365    0.0000 C   0  0
   18.5692   -6.2841    0.0000 N   0  3
   18.9926   -5.5762    0.0000 O   0  0
   18.9705   -7.0048    0.0000 O   0  5
  1  6  1  0
 31 32  1  0
  4  7  1  0
 32 33  1  0
  7  8  1  0
 33 34  1  0
  8  9  2  0
 34 35  1  0
  9 10  1  0
 34 36  2  0
 10 11  2  0
 35 37  1  0
 11 12  1  0
 37 38  1  0
 12 13  2  0
 38 39  1  0
  8 13  1  0
 39 40  1  0
 11 14  1  0
 41 40  1  1
 41 42  1  0
  9 15  1  0
 15 16  1  0
 16 17  2  0
  7 17  1  0
 42 43  1  0
 43 44  1  0
 44 45  1  0
 45 41  1  0
 17 18  1  0
 42 46  1  6
 18 19  1  0
 43 47  1  6
 19 20  1  0
 44 48  1  1
 48 52  1  0
 20 21  2  0
 16 21  1  0
 51 49  1  0
 49 50  2  0
 50 48  1  0
 20 22  1  0
  7 23  1  0
 51 52  2  0
 23 24  1  0
 52 53  1  0
  3 24  1  0
 53 54  2  0
 24 25  2  0
 54 55  1  0
 55 56  2  0
 56 51  1  0
  1 26  1  0
 56 57  1  0
  1  2  2  0
 57 58  1  0
 26 27  2  0
 58 59  1  0
  2  3  1  0
 59 60  2  0
 26 28  1  0
 60 61  1  0
  3  4  2  0
 61 62  2  0
 28 29  1  0
 62 63  1  0
  4  5  1  0
 63 64  2  0
 64 59  1  0
 29 30  1  0
  5  6  2  0
 30 31  1  0
 65 66  2  0
 65 67  1  0
 62 65  1  0
M  CHG  2  65   1  67  -1
M  END