
          11280715122D 1   1.00000     0.00000     0

 36 39  0     0  0            999 V2000
    5.0667   -0.5167    0.0000 S   0  0  3  0  0  0           0  0  0
    5.8500   -0.7792    0.0000 C   0  0  3  0  0  0           0  0  0
    6.6667   -5.9500    0.0000 C   0  0  0  0  0  0           0  0  0
    6.1375   -7.1792    0.0000 N   0  0  0  0  0  0           0  0  0
    4.2792   -0.2417    0.0000 N   0  0  0  0  0  0           0  0  0
    6.8417   -6.7542    0.0000 N   0  0  0  0  0  0           0  0  0
    5.5167   -6.6417    0.0000 N   0  0  0  0  0  0           0  0  0
    3.6542   -0.7917    0.0000 C   0  0  0  0  0  0           0  0  0
    3.6542   -1.6167    0.0000 C   0  0  0  0  0  0           0  0  0
    5.8500   -5.8750    0.0000 N   0  0  0  0  0  0           0  0  0
    7.2167   -5.3292    0.0000 C   0  0  0  0  0  0           0  0  0
    4.3667   -2.0292    0.0000 N   0  0  3  0  0  0           0  0  0
    7.2167   -4.5042    0.0000 C   0  0  0  0  0  0           0  0  0
    4.3417   -1.0250    0.0000 O   0  0  0  0  0  0           0  0  0
    5.6917    0.0333    0.0000 O   0  0  0  0  0  0           0  0  0
    2.9417   -2.0292    0.0000 N   0  0  0  0  0  0           0  0  0
    6.5042   -4.0917    0.0000 C   0  0  0  0  0  0           0  0  0
    4.3667   -2.8542    0.0000 C   0  0  0  0  0  0           0  0  0
    6.5625   -1.0250    0.0000 F   0  0  0  0  0  0           0  0  0
    6.1500   -1.5917    0.0000 F   0  0  0  0  0  0           0  0  0
    6.5792   -0.3250    0.0000 F   0  0  0  0  0  0           0  0  0
    6.5042   -3.2667    0.0000 C   0  0  0  0  0  0           0  0  0
    5.7917   -4.5042    0.0000 C   0  0  0  0  0  0           0  0  0
    5.0792   -3.2667    0.0000 C   0  0  0  0  0  0           0  0  0
    5.0792   -4.0917    0.0000 C   0  0  0  0  0  0           0  0  0
    5.7875   -2.8542    0.0000 C   0  0  0  0  0  0           0  0  0
    2.9417   -0.3792    0.0000 C   0  0  0  0  0  0           0  0  0
    5.0792   -1.6167    0.0000 C   0  0  0  0  0  0           0  0  0
    7.9292   -5.7417    0.0000 C   0  0  0  0  0  0           0  0  0
    7.9292   -4.0917    0.0000 C   0  0  0  0  0  0           0  0  0
    2.2292   -1.6167    0.0000 C   0  0  0  0  0  0           0  0  0
    5.7875   -2.0292    0.0000 C   0  0  0  0  0  0           0  0  0
    2.2292   -0.7917    0.0000 C   0  0  0  0  0  0           0  0  0
    8.6417   -5.3292    0.0000 C   0  0  0  0  0  0           0  0  0
    8.6417   -4.5042    0.0000 C   0  0  0  0  0  0           0  0  0
    6.4917   -1.6250    0.0000 C   0  0  0  0  0  0           0  0  0
  2  1  1  0     0  0
  3 11  1  0     0  0
  4  6  2  0     0  0
  5  1  1  0     0  0
  6  3  1  0     0  0
  7 10  1  0     0  0
  8  5  1  0     0  0
  9  8  1  0     0  0
 10  3  2  0     0  0
 11 13  2  0     0  0
 12  9  1  0     0  0
 13 17  1  0     0  0
 14  1  2  0     0  0
 15  1  2  0     0  0
 16  9  2  0     0  0
 17 22  2  0     0  0
 18 12  1  0     0  0
 19  2  1  0     0  0
 20  2  1  0     0  0
 21  2  1  0     0  0
 22 26  1  0     0  0
 23 25  2  0     0  0
 24 18  1  0     0  0
 25 24  1  0     0  0
 26 24  2  0     0  0
 27  8  2  0     0  0
 28 12  1  0     0  0
 29 11  1  0     0  0
 30 13  1  0     0  0
 31 33  2  0     0  0
 32 28  1  0     0  0
 33 27  1  0     0  0
 34 35  1  0     0  0
 35 30  2  0     0  0
 36 32  1  0     0  0
 16 31  1  0     0  0
 17 23  1  0     0  0
 34 29  2  0     0  0
  4  7  1  0     0  0
M  END