
          11280715482D 1   1.00000     0.00000     0

 34 37  0     0  0            999 V2000
    0.7167    0.3000    0.0000 C   0  0  0  0  0  0           0  0  0
    0.7417   -0.5250    0.0000 N   0  0  0  0  0  0           0  0  0
    0.0542    0.7958    0.0000 C   0  0  0  0  0  0           0  0  0
   -1.0708   -0.1667    0.0000 S   0  0  0  0  0  0           0  0  0
   -0.7375    0.5833    0.0000 C   0  0  0  0  0  0           0  0  0
    0.1292   -1.0542    0.0000 C   0  0  0  0  0  0           0  0  0
   -0.6833   -0.9000    0.0000 C   0  0  0  0  0  0           0  0  0
    4.0542   -4.4042    0.0000 C   0  0  0  0  0  0           0  0  0
    1.4625    0.6833    0.0000 N   0  0  3  0  0  0           0  0  0
    3.3292   -4.7917    0.0000 C   0  0  3  0  0  0           0  0  0
    4.0750   -3.5750    0.0000 O   0  0  0  0  0  0           0  0  0
    2.6292   -4.3542    0.0000 C   0  0  0  0  0  0           0  0  0
    2.6667   -3.5292    0.0000 C   0  0  0  0  0  0           0  0  0
    4.7625   -4.8417    0.0000 O   0  0  0  0  0  0           0  0  0
    0.2750    1.5958    0.0000 C   0  0  0  0  0  0           0  0  0
    2.7542   -1.8792    0.0000 C   0  0  0  0  0  0           0  0  0
    3.3000   -5.6250    0.0000 O   0  0  0  0  0  0           0  0  0
    3.4000   -3.1542    0.0000 C   0  0  0  0  0  0           0  0  0
    1.9667   -3.0875    0.0000 C   0  0  0  0  0  0           0  0  0
    3.4417   -2.3292    0.0000 C   0  0  0  0  0  0           0  0  0
    2.0167   -2.2542    0.0000 C   0  0  0  0  0  0           0  0  0
    2.8000   -1.0542    0.0000 O   0  0  0  0  0  0           0  0  0
    2.1042   -0.6042    0.0000 C   0  0  0  0  0  0           0  0  0
   -1.3208    1.1708    0.0000 C   0  0  0  0  0  0           0  0  0
    2.1542    0.2208    0.0000 C   0  0  0  0  0  0           0  0  0
    0.4000   -1.8292    0.0000 C   0  0  0  0  0  0           0  0  0
   -1.2208   -1.5250    0.0000 C   0  0  0  0  0  0           0  0  0
    1.5125    1.5083    0.0000 C   0  0  0  0  0  0           0  0  0
    4.0000   -6.0542    0.0000 C   0  0  0  0  0  0           0  0  0
   -0.3083    2.1750    0.0000 C   0  0  0  0  0  0           0  0  0
   -1.1083    1.9583    0.0000 C   0  0  0  0  0  0           0  0  0
    3.9792   -6.8875    0.0000 C   0  0  0  0  0  0           0  0  0
   -0.1375   -2.4542    0.0000 C   0  0  0  0  0  0           0  0  0
   -0.9500   -2.3000    0.0000 C   0  0  0  0  0  0           0  0  0
  2  1  2  0     0  0
  3  1  1  0     0  0
  4  5  1  0     0  0
  5  3  2  0     0  0
  6  2  1  0     0  0
  7  6  2  0     0  0
  8 10  1  0     0  0
  9  1  1  0     0  0
 10 12  1  0     0  0
 11  8  2  0     0  0
 12 13  1  0     0  0
 13 19  2  0     0  0
 14  8  1  0     0  0
 15  3  1  0     0  0
 16 22  1  0     0  0
 17 10  1  0     0  0
 18 20  2  0     0  0
 19 21  1  0     0  0
 20 16  1  0     0  0
 21 16  2  0     0  0
 22 23  1  0     0  0
 23 25  1  0     0  0
 24  5  1  0     0  0
 25  9  1  0     0  0
 26  6  1  0     0  0
 27  7  1  0     0  0
 28  9  1  0     0  0
 29 17  1  0     0  0
 30 15  2  0     0  0
 31 30  1  0     0  0
 32 29  1  0     0  0
 33 26  2  0     0  0
 34 33  1  0     0  0
  4  7  1  0     0  0
 24 31  2  0     0  0
 34 27  2  0     0  0
 18 13  1  0     0  0
M  END