
          11280715502D 1   1.00000     0.00000     0

 51 56  0     1  0            999 V2000
    1.0027  -21.1717    0.0000 N   0  0  3  0  0  0           0  0  0
    0.3082  -21.6120    0.0000 C   0  0  0  0  0  0           0  0  0
    0.3429  -22.4327    0.0000 C   0  0  0  0  0  0           0  0  0
    1.0734  -22.8168    0.0000 O   0  0  0  0  0  0           0  0  0
    1.7706  -22.3739    0.0000 C   0  0  0  0  0  0           0  0  0
    1.7373  -21.5470    0.0000 C   0  0  0  0  0  0           0  0  0
    2.3792  -17.8458    0.0000 C   0  0  0  0  0  0           0  0  0
    3.0840  -17.4170    0.0000 C   0  0  0  0  0  0           0  0  0
    2.3981  -18.6706    0.0000 N   0  0  0  0  0  0           0  0  0
    1.6933  -19.0994    0.0000 O   0  0  0  0  0  0           0  0  0
    1.7122  -19.9242    0.0000 C   0  0  0  0  0  0           0  0  0
    1.0074  -20.3530    0.0000 C   0  0  0  0  0  0           0  0  0
   -4.0431  -16.6250    0.0000 C   0  0  0  0  0  0           0  0  0
   -4.0443  -17.4523    0.0000 C   0  0  0  0  0  0           0  0  0
   -3.3294  -17.8652    0.0000 C   0  0  0  0  0  0           0  0  0
   -2.6130  -17.4519    0.0000 C   0  0  0  0  0  0           0  0  0
   -2.6159  -16.6213    0.0000 C   0  0  0  0  0  0           0  0  0
   -3.3312  -16.2122    0.0000 C   0  0  0  0  0  0           0  0  0
   -1.9029  -16.2061    0.0000 C   0  0  0  0  0  0           0  0  0
   -1.1869  -16.6159    0.0000 N   0  0  3  0  0  0           0  0  0
   -1.9061  -15.3811    0.0000 O   0  0  0  0  0  0           0  0  0
   -1.1864  -17.4427    0.0000 C   0  0  1  0  0  0           0  0  0
   -0.4745  -17.8524    0.0000 C   0  0  0  0  0  0           0  0  0
    0.2408  -17.4407    0.0000 N   0  0  3  0  0  0           0  0  0
    0.2397  -16.6148    0.0000 C   0  0  0  0  0  0           0  0  0
   -0.4768  -16.2005    0.0000 C   0  0  0  0  0  0           0  0  0
   -1.9005  -17.8559    0.0000 C   0  0  0  0  0  0           0  0  0
   -1.9083  -18.6792    0.0000 C   0  0  0  0  0  0           0  0  0
   -2.5763  -19.1604    0.0000 C   0  0  0  0  0  0           0  0  0
   -2.3293  -19.9458    0.0000 N   0  0  0  0  0  0           0  0  0
   -1.2443  -19.1731    0.0000 C   0  0  0  0  0  0           0  0  0
   -1.5063  -19.9522    0.0000 C   0  0  0  0  0  0           0  0  0
   -0.9631  -20.5665    0.0000 C   0  0  0  0  0  0           0  0  0
   -0.1578  -20.4031    0.0000 C   0  0  0  0  0  0           0  0  0
    0.1014  -19.6198    0.0000 C   0  0  0  0  0  0           0  0  0
   -0.4435  -19.0087    0.0000 C   0  0  0  0  0  0           0  0  0
   -3.3375  -18.6875    0.0000 C   0  0  3  0  0  0           0  0  0
   -2.5125  -18.6875    0.0000 F   0  0  0  0  0  0           0  0  0
   -3.3417  -19.5125    0.0000 F   0  0  0  0  0  0           0  0  0
   -4.1625  -18.6833    0.0000 F   0  0  0  0  0  0           0  0  0
   -4.7577  -16.2126    0.0000 C   0  0  3  0  0  0           0  0  0
   -5.1750  -16.9250    0.0000 F   0  0  0  0  0  0           0  0  0
   -4.3500  -15.4958    0.0000 F   0  0  0  0  0  0           0  0  0
   -5.4750  -15.8000    0.0000 F   0  0  0  0  0  0           0  0  0
    0.9553  -17.8533    0.0000 C   0  0  0  0  0  0           0  0  0
    1.6667  -17.4333    0.0000 C   0  0  0  0  0  0           0  0  0
    3.8067  -17.8164    0.0000 C   0  0  0  0  0  0           0  0  0
    4.5110  -17.3883    0.0000 C   0  0  0  0  0  0           0  0  0
    4.4925  -16.5626    0.0000 C   0  0  0  0  0  0           0  0  0
    3.7638  -16.1669    0.0000 C   0  0  0  0  0  0           0  0  0
    3.0624  -16.5973    0.0000 C   0  0  0  0  0  0           0  0  0
 24 25  1  0     0  0
 25 26  1  0     0  0
 13 14  2  0     0  0
 22 27  1  1     0  0
 27 28  1  0     0  0
 28 29  2  0     0  0
 14 15  1  0     0  0
  7  8  1  0     0  0
 29 30  1  0     0  0
 30 32  1  0     0  0
 31 28  1  0     0  0
 15 16  2  0     0  0
  1  6  1  0     0  0
 31 32  2  0     0  0
 16 17  1  0     0  0
 32 33  1  0     0  0
  7  9  2  0     0  0
 33 34  2  0     0  0
 17 18  2  0     0  0
 34 35  1  0     0  0
 18 13  1  0     0  0
 35 36  2  0     0  0
 36 31  1  0     0  0
  2  3  1  0     0  0
 15 37  1  0     0  0
 17 19  1  0     0  0
 37 38  1  0     0  0
  9 10  1  0     0  0
 37 39  1  0     0  0
 19 20  1  0     0  0
 37 40  1  0     0  0
  3  4  1  0     0  0
 13 41  1  0     0  0
 19 21  2  0     0  0
 41 42  1  0     0  0
 20 22  1  0     0  0
 41 43  1  0     0  0
 10 11  1  0     0  0
 41 44  1  0     0  0
  4  5  1  0     0  0
 24 45  1  0     0  0
 11 12  1  0     0  0
 45 46  1  0     0  0
 46  7  1  0     0  0
 12  1  1  0     0  0
  5  6  1  0     0  0
  8 47  2  0     0  0
  1  2  1  0     0  0
 47 48  1  0     0  0
 20 26  1  0     0  0
 48 49  2  0     0  0
 22 23  1  0     0  0
 49 50  1  0     0  0
 23 24  1  0     0  0
 50 51  2  0     0  0
 51  8  1  0     0  0
M  END