
  CDK    9/16/09,9:54

 25 27  0  0  0  0  0  0  0  0999 V2000
   -3.7181  -19.7500    0.0000 C   0  0  0  0  0  0  0  0  0  0  0  0
   -3.7193  -20.5773    0.0000 C   0  0  0  0  0  0  0  0  0  0  0  0
   -3.0044  -20.9902    0.0000 C   0  0  0  0  0  0  0  0  0  0  0  0
   -2.2880  -20.5769    0.0000 C   0  0  0  0  0  0  0  0  0  0  0  0
   -2.2909  -19.7463    0.0000 C   0  0  0  0  0  0  0  0  0  0  0  0
   -3.0062  -19.3372    0.0000 C   0  0  0  0  0  0  0  0  0  0  0  0
   -1.5779  -19.3311    0.0000 N   0  0  0  0  0  0  0  0  0  0  0  0
   -0.8619  -19.7409    0.0000 C   0  0  0  0  0  0  0  0  0  0  0  0
   -0.8622  -20.5636    0.0000 N   0  0  0  0  0  0  0  0  0  0  0  0
   -0.1470  -20.9733    0.0000 C   0  0  0  0  0  0  0  0  0  0  0  0
    0.5669  -20.5581    0.0000 C   0  0  0  0  0  0  0  0  0  0  0  0
    0.5611  -19.7288    0.0000 C   0  0  0  0  0  0  0  0  0  0  0  0
   -0.1546  -19.3228    0.0000 N   0  0  0  0  0  0  0  0  0  0  0  0
   -3.0046  -21.8152    0.0000 C   0  0  0  0  0  0  0  0  0  0  0  0
   -3.7192  -22.2275    0.0000 N   0  0  0  0  0  0  0  0  0  0  0  0
   -2.2903  -22.2279    0.0000 O   0  0  0  0  0  0  0  0  0  0  0  0
   -0.1443  -21.7983    0.0000 N   0  0  0  0  0  0  0  0  0  0  0  0
    0.5715  -22.2085    0.0000 C   0  0  0  0  0  0  0  0  0  0  0  0
    0.5708  -23.0344    0.0000 C   0  0  0  0  0  0  0  0  0  0  0  0
    1.2857  -23.4445    0.0000 C   0  0  0  0  0  0  0  0  0  0  0  0
    1.9998  -23.0296    0.0000 C   0  0  0  0  0  0  0  0  0  0  0  0
    1.9945  -22.2003    0.0000 C   0  0  0  0  0  0  0  0  0  0  0  0
    1.2789  -21.7940    0.0000 C   0  0  0  0  0  0  0  0  0  0  0  0
    2.7061  -21.7830    0.0000 O   0  0  0  0  0  0  0  0  0  0  0  0
   -0.1433  -23.4476    0.0000 C   0  0  0  0  0  0  0  0  0  0  0  0
  6  1  1  0  0  0  0 
 12 13  2  0  0  0  0 
 13  8  1  0  0  0  0 
  1  2  2  0  0  0  0 
  3 14  1  0  0  0  0 
  5  7  1  0  0  0  0 
 14 15  1  0  0  0  0 
  3  4  2  0  0  0  0 
 14 16  2  0  0  0  0 
  7  8  1  0  0  0  0 
 10 17  1  0  0  0  0 
 17 18  1  0  0  0  0 
  8  9  2  0  0  0  0 
 18 19  2  0  0  0  0 
  4  5  1  0  0  0  0 
 19 20  1  0  0  0  0 
  9 10  1  0  0  0  0 
 20 21  2  0  0  0  0 
  2  3  1  0  0  0  0 
 21 22  1  0  0  0  0 
 10 11  2  0  0  0  0 
 22 23  2  0  0  0  0 
 23 18  1  0  0  0  0 
  5  6  2  0  0  0  0 
 22 24  1  0  0  0  0 
 11 12  1  0  0  0  0 
 19 25  1  0  0  0  0 
M  END