
          05080814042D 1   1.00000     0.00000     0

 37 41  0     1  0            999 V2000
   -4.9707  -13.3296    0.0000 C   0  0  0  0  0  0           0  0  0
   -5.6811  -13.7443    0.0000 C   0  0  0  0  0  0           0  0  0
   -5.6741  -14.5702    0.0000 C   0  0  0  0  0  0           0  0  0
   -4.9606  -14.9735    0.0000 C   0  0  0  0  0  0           0  0  0
   -4.2578  -13.7366    0.0000 C   0  0  0  0  0  0           0  0  0
   -4.2518  -14.5639    0.0000 C   0  0  0  0  0  0           0  0  0
   -3.5362  -14.9701    0.0000 C   0  0  0  0  0  0           0  0  0
   -3.5483  -13.3155    0.0000 C   0  0  0  0  0  0           0  0  0
   -2.8283  -13.7262    0.0000 C   0  0  2  0  0  0           0  0  0
   -2.8237  -14.5554    0.0000 C   0  0  2  0  0  0           0  0  0
   -2.1073  -14.9638    0.0000 N   0  0  3  0  0  0           0  0  0
   -1.3908  -14.5475    0.0000 C   0  0  0  0  0  0           0  0  0
   -1.3954  -13.7183    0.0000 C   0  0  1  0  0  0           0  0  0
   -2.1164  -13.3054    0.0000 C   0  0  0  0  0  0           0  0  0
   -2.8361  -12.8977    0.0000 H   0  0  0  0  0  0           0  0  0
   -2.8319  -15.3798    0.0000 H   0  0  0  0  0  0           0  0  0
   -0.6832  -13.3028    0.0000 C   0  0  0  0  0  0           0  0  0
    0.0328  -13.7119    0.0000 N   0  0  3  0  0  0           0  0  0
   -0.6869  -12.4782    0.0000 O   0  0  0  0  0  0           0  0  0
   -4.9747  -12.5050    0.0000 O   0  0  0  0  0  0           0  0  0
   -5.6907  -12.0962    0.0000 C   0  0  0  0  0  0           0  0  0
   -2.1039  -15.7884    0.0000 C   0  0  0  0  0  0           0  0  0
    0.7077  -13.2439    0.0000 C   0  0  0  0  0  0           0  0  0
    1.4991  -13.4823    0.0000 C   0  0  0  0  0  0           0  0  0
   -0.0260  -14.5330    0.0000 C   0  0  0  0  0  0           0  0  0
    1.8079  -14.2455    0.0000 N   0  0  3  0  0  0           0  0  0
    0.5833  -15.0907    0.0000 C   0  0  0  0  0  0           0  0  0
    1.3984  -14.9599    0.0000 C   0  0  0  0  0  0           0  0  0
    2.6326  -14.2501    0.0000 C   0  0  0  0  0  0           0  0  0
    3.0364  -14.9699    0.0000 C   0  0  0  0  0  0           0  0  0
    3.8603  -14.9750    0.0000 C   0  0  0  0  0  0           0  0  0
    4.2774  -14.2626    0.0000 C   0  0  0  0  0  0           0  0  0
    3.8648  -13.5438    0.0000 C   0  0  0  0  0  0           0  0  0
    3.0423  -13.5423    0.0000 C   0  0  0  0  0  0           0  0  0
    5.1046  -14.2673    0.0000 N   0  3  0  0  0  0           0  0  0
    5.5200  -13.5550    0.0000 O   0  0  0  0  0  0           0  0  0
    5.5138  -14.9832    0.0000 O   0  5  0  0  0  0           0  0  0
  7 10  1  0     0  0
 17 18  1  0     0  0
  9  8  1  0     0  0
 17 19  2  0     0  0
  9 10  1  0     0  0
  1 20  1  0     0  0
  3  4  2  0     0  0
 20 21  1  0     0  0
  4  6  1  0     0  0
 11 22  1  0     0  0
  5  6  2  0     0  0
 18 23  1  0     0  0
  1  2  2  0     0  0
 23 24  1  0     0  0
  5  1  1  0     0  0
 18 25  1  0     0  0
  2  3  1  0     0  0
 24 26  1  0     0  0
  9 14  1  0     0  0
 25 27  1  0     0  0
 10 11  1  0     0  0
 26 28  1  0     0  0
 27 28  1  0     0  0
 11 12  1  0     0  0
 26 29  1  0     0  0
 12 13  1  0     0  0
 29 30  2  0     0  0
 13 14  1  0     0  0
 30 31  1  0     0  0
 31 32  2  0     0  0
  9 15  1  6     0  0
 32 33  1  0     0  0
  5  8  1  0     0  0
 33 34  2  0     0  0
 34 29  1  0     0  0
 10 16  1  1     0  0
  6  7  1  0     0  0
 13 17  1  1     0  0
 35 36  2  0     0  0
 35 37  1  0     0  0
 32 35  1  0     0  0
M  CHG  2  35   1  37  -1
M  END