
  SciTegic04091414152D

 18 18  0  0  0  0            999 V2000
   35.2343  -15.6338    0.0000 C   0  0
   35.2343  -16.4589    0.0000 C   0  0
   35.9464  -16.8671    0.0000 C   0  0
   36.6584  -16.4589    0.0000 C   0  0
   36.6584  -15.6338    0.0000 C   0  0
   35.9464  -15.2171    0.0000 N   0  0
   37.3741  -15.2233    0.0000 O   0  0
   34.5186  -15.2233    0.0000 O   0  0
   34.5204  -16.8724    0.0000 C   0  0
   33.8098  -17.2853    0.0000 N   0  0
   35.9464  -17.6922    0.0000 C   0  0
   37.3723  -16.8724    0.0000 C   0  0
   38.0874  -16.4609    0.0000 N   0  0
   38.8013  -16.8744    0.0000 C   0  0
   39.5164  -16.4630    0.0000 C   0  0
   40.2302  -16.8765    0.0000 O   0  0
   39.5176  -15.6380    0.0000 C   0  0
   40.2327  -15.2265    0.0000 O   0  0
  1  2  1  0
  1  6  1  0
  2  3  2  0
  3  4  1  0
  4  5  2  0
  5  6  1  0
  5  7  1  0
  1  8  2  0
  2  9  1  0
  9 10  3  0
  3 11  1  0
  4 12  1  0
 12 13  1  0
 13 14  1  0
 14 15  1  0
 15 16  1  0
 15 17  1  0
 17 18  1  0
M  END