
  SciTegic01161211252D

 27 30  0  0  0  0            999 V2000
   18.0882   -4.8873    0.0000 N   0  0
   18.8891   -4.7083    0.0000 C   0  0
   19.5350   -5.2246    0.0000 C   0  0
   17.7274   -5.6316    0.0000 C   0  0
   19.5368   -6.0482    0.0000 N   0  0
   18.0852   -6.3765    0.0000 C   0  0
   18.8907   -6.5590    0.0000 C   0  0
   20.2506   -6.4616    0.0000 C   0  0
   20.2486   -7.2866    0.0000 O   0  0
   20.9659   -6.0515    0.0000 C   0  0  2  0  0  0
   21.6363   -6.5266    0.0000 N   0  0
   22.2966   -6.0319    0.0000 C   0  0
   22.0301   -5.2511    0.0000 C   0  0  2  0  0  0
   21.2053   -5.2633    0.0000 C   0  0
   22.5053   -4.5765    0.0000 O   0  0
   22.1000   -3.8579    0.0000 C   0  0
   22.5213   -3.1507    0.0000 C   0  0
   22.1166   -2.4326    0.0000 C   0  0
   21.2908   -2.4239    0.0000 C   0  0
   20.8713   -3.1392    0.0000 C   0  0
   21.2783   -3.8544    0.0000 C   0  0
   17.5074   -4.3014    0.0000 C   0  0
   17.5116   -3.4753    0.0000 C   0  0
   16.6866   -3.4717    0.0000 C   0  0
   16.6829   -4.2967    0.0000 C   0  0
   20.8845   -1.7059    0.0000 S   0  0
   20.0596   -1.6987    0.0000 C   0  0
 12 13  1  0
 13 14  1  0
 14 10  1  0
  6  7  1  0
 13 15  1  6
  1  4  1  0
 15 16  1  0
  5  8  1  0
 16 17  2  0
 17 18  1  0
  8  9  2  0
 18 19  2  0
  3  5  1  0
 19 20  1  0
 10  8  1  1
 20 21  2  0
 21 16  1  0
 10 11  1  0
  1 22  1  0
 22 23  1  0
  2  3  1  0
  4  6  1  0
  1  2  1  0
 23 24  1  0
 24 25  1  0
 25 22  1  0
  5  7  1  0
 19 26  1  0
 11 12  1  0
 26 27  1  0
M  END