
  CDK    9/16/09,10:4

 15 15  0  0  0  0  0  0  0  0999 V2000
   11.8750  -15.4000    0.0000 C   0  0  0  0  0  0  0  0  0  0  0  0
   12.5895  -14.9875    0.0000 C   0  0  0  0  0  0  0  0  0  0  0  0
   13.3039  -15.4000    0.0000 C   0  0  0  0  0  0  0  0  0  0  0  0
   14.0184  -14.9875    0.0000 C   0  0  0  0  0  0  0  0  0  0  0  0
   14.7329  -15.4000    0.0000 N   0  0  0  0  0  0  0  0  0  0  0  0
   15.4474  -14.9875    0.0000 C   0  0  0  0  0  0  0  0  0  0  0  0
   16.1618  -15.4000    0.0000 N   0  0  0  0  0  0  0  0  0  0  0  0
   15.4474  -14.1625    0.0000 N   0  0  0  0  0  0  0  0  0  0  0  0
   16.8763  -14.9875    0.0000 C   0  0  0  0  0  0  0  0  0  0  0  0
   17.5908  -15.4000    0.0000 C   0  0  0  0  0  0  0  0  0  0  0  0
   16.8763  -14.1625    0.0000 O   0  0  0  0  0  0  0  0  0  0  0  0
   11.0882  -15.1519    0.0000 N   0  0  0  0  0  0  0  0  0  0  0  0
   10.6091  -15.8236    0.0000 C   0  0  0  0  0  0  0  0  0  0  0  0
   11.0999  -16.4868    0.0000 N   0  0  0  0  0  0  0  0  0  0  0  0
   11.8822  -16.2249    0.0000 C   0  0  0  0  0  0  0  0  0  0  0  0
  6  8  1  0  0  0  0 
  7  9  1  0  0  0  0 
  4  5  1  0  0  0  0 
  9 10  1  0  0  0  0 
  2  3  1  0  0  0  0 
  9 11  2  0  0  0  0 
  1 12  1  0  0  0  0 
  5  6  1  0  0  0  0 
  1  2  1  0  0  0  0 
  6  7  2  0  0  0  0 
  3  4  1  0  0  0  0 
 12 13  2  0  0  0  0 
 13 14  1  0  0  0  0 
 14 15  1  0  0  0  0 
 15  1  2  0  0  0  0 
M  END