
  SciTegic01161211232D

 12 12  0  0  0  0            999 V2000
    5.6260   -8.7682    0.0000 C   0  0
    5.6249   -9.5953    0.0000 C   0  0
    6.3395  -10.0080    0.0000 C   0  0
    7.0557   -9.5948    0.0000 C   0  0
    7.0529   -8.7646    0.0000 C   0  0
    6.3377   -8.3555    0.0000 C   0  0
    6.3352   -7.5307    0.0000 S   0  0
    7.0483   -7.1163    0.0000 N   0  0
    5.5316   -7.7394    0.0000 O   0  0
    5.9149   -6.8104    0.0000 O   0  0
    6.3393  -10.8327    0.0000 C   0  0
    5.6249  -11.2450    0.0000 C   0  0
  6  1  1  0
  1  2  2  0
  6  7  1  0
  3  4  2  0
  7  8  1  0
  7  9  2  0
  4  5  1  0
  7 10  2  0
  2  3  1  0
  3 11  1  0
  5  6  2  0
 11 12  1  0
M  END