
          11280715352D 1   1.00000     0.00000     0

 42 45  0     1  0            999 V2000
    3.8750   -5.7542    0.0000 N   0  0  3  0  0  0           0  0  0
    4.8917   -5.1792    0.0000 C   0  0  0  0  0  0           0  0  0
    4.3875   -4.8917    0.0000 C   0  0  0  0  0  0           0  0  0
    4.8917   -4.0042    0.0000 C   0  0  2  0  0  0           0  0  0
    4.8875   -5.7667    0.0000 C   0  0  0  0  0  0           0  0  0
    3.8792   -5.1667    0.0000 C   0  0  0  0  0  0           0  0  0
    4.3875   -4.3042    0.0000 C   0  0  0  0  0  0           0  0  0
    5.4000   -4.3042    0.0000 C   0  0  2  0  0  0           0  0  0
    5.9167   -4.0167    0.0000 N   0  0  3  0  0  0           0  0  0
    5.4000   -4.8917    0.0000 C   0  0  0  0  0  0           0  0  0
    4.9000   -3.4167    0.0000 C   0  0  0  0  0  0           0  0  0
    5.4125   -3.1292    0.0000 C   0  0  0  0  0  0           0  0  0
    6.4417   -2.5542    0.0000 C   0  0  0  0  0  0           0  0  0
    5.9250   -3.4292    0.0000 C   0  0  0  0  0  0           0  0  0
    8.8375   -5.2792    0.0000 C   0  0  0  0  0  0           0  0  0
    7.6292   -5.2792    0.0000 C   0  0  0  0  0  0           0  0  0
    8.5292   -4.7667    0.0000 C   0  0  0  0  0  0           0  0  0
    7.9292   -4.7667    0.0000 C   0  0  0  0  0  0           0  0  0
    5.9375   -2.2542    0.0000 O   0  0  0  0  0  0           0  0  0
    6.9542   -2.2667    0.0000 C   0  0  1  0  0  0           0  0  0
    3.2792   -6.3292    0.0000 C   0  0  3  0  0  0           0  0  0
    6.4375   -3.1417    0.0000 O   0  0  0  0  0  0           0  0  0
    9.4375   -5.2792    0.0000 O   0  0  0  0  0  0           0  0  0
    7.9292   -5.8042    0.0000 O   0  0  0  0  0  0           0  0  0
    5.4167   -2.5417    0.0000 C   0  0  0  0  0  0           0  0  0
    6.9667   -1.6792    0.0000 C   0  0  0  0  0  0           0  0  0
    7.4625   -2.5792    0.0000 C   0  0  0  0  0  0           0  0  0
    3.3750   -4.8917    0.0000 C   0  0  0  0  0  0           0  0  0
    3.8792   -4.0042    0.0000 C   0  0  0  0  0  0           0  0  0
    6.4250   -4.3167    0.0000 C   0  0  0  0  0  0           0  0  0
    8.5292   -5.8042    0.0000 O   0  0  0  0  0  0           0  0  0
    7.0292   -5.2792    0.0000 O   0  0  0  0  0  0           0  0  0
    7.9792   -2.2917    0.0000 C   0  0  0  0  0  0           0  0  0
    7.4792   -1.3917    0.0000 C   0  0  0  0  0  0           0  0  0
    7.9917   -1.7042    0.0000 C   0  0  2  0  0  0           0  0  0
    8.7375   -1.2667    0.0000 O   0  0  0  0  0  0           0  0  0
    3.3750   -4.3042    0.0000 C   0  0  0  0  0  0           0  0  0
    2.4875   -6.1042    0.0000 C   0  0  0  0  0  0           0  0  0
    3.4792   -7.1292    0.0000 C   0  0  0  0  0  0           0  0  0
    9.3625   -1.4792    0.0000 C   0  0  0  0  0  0           0  0  0
    5.9125   -4.6042    0.0000 H   0  0  0  0  0  0           0  0  0
    4.1375   -3.4542    0.0000 H   0  0  0  0  0  0           0  0  0
  2  5  2  0     0  0
  3  6  1  0     0  0
  4  7  1  0     0  0
  5  1  1  0     0  0
  6  1  1  0     0  0
  7  3  2  0     0  0
  8 10  1  0     0  0
  9  8  1  0     0  0
 10  2  1  0     0  0
 11  4  1  0     0  0
 12 11  2  0     0  0
 13 19  1  0     0  0
 14  9  1  0     0  0
 16 18  1  0     0  0
 17 15  1  0     0  0
 18 17  2  0     0  0
 19 25  1  0     0  0
 20 13  1  1     0  0
 21  1  1  0     0  0
 22 13  2  0     0  0
 23 15  2  0     0  0
 24 16  2  0     0  0
 25 12  1  0     0  0
 26 20  1  0     0  0
 27 20  1  0     0  0
 28  6  2  0     0  0
 29  7  1  0     0  0
 30  9  1  0     0  0
 31 15  1  0     0  0
 32 16  1  0     0  0
 33 27  1  0     0  0
 34 26  1  0     0  0
 35 33  1  0     0  0
 35 36  1  6     0  0
 37 28  1  0     0  0
 38 21  1  0     0  0
 39 21  1  0     0  0
 40 36  1  0     0  0
  8 41  1  1     0  0
  4 42  1  6     0  0
  3  2  1  0     0  0
 37 29  2  0     0  0
  8  4  1  0     0  0
 14 12  1  0     0  0
 35 34  1  0     0  0
M  END