
  CDK    8/10/10,12:22

 29 31  0  0  0  0  0  0  0  0999 V2000
   -3.7761    0.9374    0.0000 C   0  0  0  0  0  0  0  0  0  0  0  0
   -3.7773    0.1102    0.0000 C   0  0  0  0  0  0  0  0  0  0  0  0
   -3.0626   -0.3027    0.0000 C   0  0  0  0  0  0  0  0  0  0  0  0
   -3.0644    1.3502    0.0000 C   0  0  0  0  0  0  0  0  0  0  0  0
   -2.3490    0.9411    0.0000 C   0  0  0  0  0  0  0  0  0  0  0  0
   -2.3502    0.1081    0.0000 C   0  0  0  0  0  0  0  0  0  0  0  0
   -1.6334   -0.3072    0.0000 C   0  0  0  0  0  0  0  0  0  0  0  0
   -0.9107    0.1060    0.0000 C   0  0  0  0  0  0  0  0  0  0  0  0
   -0.9095    0.9390    0.0000 C   0  0  0  0  0  0  0  0  0  0  0  0
   -1.6310    1.3589    0.0000 O   0  0  0  0  0  0  0  0  0  0  0  0
   -0.1975   -0.3085    0.0000 O   0  0  0  0  0  0  0  0  0  0  0  0
   -0.1999   -1.1334    0.0000 C   0  0  0  0  0  0  0  0  0  0  0  0
   -1.6357   -1.1321    0.0000 O   0  0  0  0  0  0  0  0  0  0  0  0
   -0.1942    1.3498    0.0000 C   0  0  0  0  0  0  0  0  0  0  0  0
    0.5179    0.9312    0.0000 C   0  0  0  0  0  0  0  0  0  0  0  0
    1.2328    1.3412    0.0000 C   0  0  0  0  0  0  0  0  0  0  0  0
    1.2352    2.1670    0.0000 C   0  0  0  0  0  0  0  0  0  0  0  0
    0.5168    2.5811    0.0000 C   0  0  0  0  0  0  0  0  0  0  0  0
   -0.1952    2.1687    0.0000 C   0  0  0  0  0  0  0  0  0  0  0  0
    1.9460    0.9267    0.0000 O   0  0  0  0  0  0  0  0  0  0  0  0
    1.9502    2.5787    0.0000 O   0  0  0  0  0  0  0  0  0  0  0  0
    2.6641    2.1654    0.0000 C   0  0  0  0  0  0  0  0  0  0  0  0
   -3.0629   -1.1276    0.0000 O   0  0  0  0  0  0  0  0  0  0  0  0
   -4.4921   -0.3018    0.0000 O   0  0  0  0  0  0  0  0  0  0  0  0
   -5.2061    0.1113    0.0000 C   0  0  0  0  0  0  0  0  0  0  0  0
   -4.4907    1.3498    0.0000 O   0  0  0  0  0  0  0  0  0  0  0  0
   -4.4909    2.1747    0.0000 C   0  0  0  0  0  0  0  0  0  0  0  0
   -3.0668    2.1751    0.0000 O   0  0  0  0  0  0  0  0  0  0  0  0
   -2.3536    2.5897    0.0000 C   0  0  0  0  0  0  0  0  0  0  0  0
  9 14  1  0  0  0  0 
  1  2  2  0  0  0  0 
 14 15  2  0  0  0  0 
  5  4  2  0  0  0  0 
 15 16  1  0  0  0  0 
  4  1  1  0  0  0  0 
 16 17  2  0  0  0  0 
  5 10  1  0  0  0  0 
 17 18  1  0  0  0  0 
  6  7  1  0  0  0  0 
 18 19  2  0  0  0  0 
 19 14  1  0  0  0  0 
  7  8  1  0  0  0  0 
 16 20  1  0  0  0  0 
  8  9  2  0  0  0  0 
 17 21  1  0  0  0  0 
  9 10  1  0  0  0  0 
 21 22  1  0  0  0  0 
  5  6  1  0  0  0  0 
  3 23  1  0  0  0  0 
  8 11  1  0  0  0  0 
  2 24  1  0  0  0  0 
 24 25  1  0  0  0  0 
 11 12  1  0  0  0  0 
  1 26  1  0  0  0  0 
  2  3  1  0  0  0  0 
 26 27  1  0  0  0  0 
  7 13  2  0  0  0  0 
  4 28  1  0  0  0  0 
  3  6  2  0  0  0  0 
 28 29  1  0  0  0  0 
M  END