
          11280715042D 1   1.00000     0.00000     0

 16 16  0     0  0            999 V2000
    3.5750   -3.6750    0.0000 N   0  0  0  0  0  0           0  0  0
    0.7167   -3.6750    0.0000 O   0  0  0  0  0  0           0  0  0
    2.1417   -3.6750    0.0000 C   0  0  3  0  0  0           0  0  0
    0.0042   -4.0875    0.0000 C   0  0  0  0  0  0           0  0  0
    2.8625   -4.0875    0.0000 C   0  0  0  0  0  0           0  0  0
    1.4292   -4.0875    0.0000 C   0  0  0  0  0  0           0  0  0
   -1.4250   -4.9042    0.0000 C   0  0  0  0  0  0           0  0  0
   -0.7125   -3.6667    0.0000 C   0  0  0  0  0  0           0  0  0
    0.0042   -4.9042    0.0000 C   0  0  0  0  0  0           0  0  0
   -0.7083   -5.3167    0.0000 C   0  0  0  0  0  0           0  0  0
   -1.4250   -4.0792    0.0000 C   0  0  0  0  0  0           0  0  0
    2.1417   -2.8500    0.0000 O   0  0  0  0  0  0           0  0  0
    4.2875   -4.0875    0.0000 C   0  0  3  0  0  0           0  0  0
   -2.1375   -5.3167    0.0000 C   0  0  0  0  0  0           0  0  0
    5.0042   -3.6750    0.0000 C   0  0  0  0  0  0           0  0  0
    4.2875   -4.9125    0.0000 C   0  0  0  0  0  0           0  0  0
  2  6  1  0     0  0
  3  5  1  0     0  0
  4  2  1  0     0  0
  5  1  1  0     0  0
  6  3  1  0     0  0
  7 10  1  0     0  0
  8  4  2  0     0  0
  9  4  1  0     0  0
 10  9  2  0     0  0
 11  8  1  0     0  0
 12  3  1  0     0  0
 13  1  1  0     0  0
 14  7  1  0     0  0
 15 13  1  0     0  0
 16 13  1  0     0  0
  7 11  2  0     0  0
M  END