
          11280715132D 1   1.00000     0.00000     0

 24 23  0     1  0            999 V2000
    5.4500    1.0083    0.0000 C   0  0  0  0  0  0           0  0  0
    5.2292    1.8083    0.0000 O   0  0  0  0  0  0           0  0  0
    1.1250    0.9958    0.0000 C   0  0  0  0  0  0           0  0  0
    2.2917    0.9958    0.0000 C   0  0  0  0  0  0           0  0  0
    1.1917   -1.3167    0.0000 C   0  0  0  0  0  0           0  0  0
    3.1167    0.9958    0.0000 C   0  0  0  0  0  0           0  0  0
    2.0167   -1.3167    0.0000 C   0  0  0  0  0  0           0  0  0
    0.3000    0.9958    0.0000 C   0  0  0  0  0  0           0  0  0
    6.2417    0.7958    0.0000 O   0  0  0  0  0  0           0  0  0
    1.7042    0.4083    0.0000 C   0  0  0  0  0  0           0  0  0
   -0.5208   -1.8667    0.0000 O   0  0  0  0  0  0           0  0  0
    4.8667    0.4208    0.0000 C   0  0  0  0  0  0           0  0  0
    0.4792   -1.7375    0.0000 C   0  0  0  0  0  0           0  0  0
   -0.1083    0.2750    0.0000 C   0  0  0  0  0  0           0  0  0
    2.6042   -1.9042    0.0000 C   0  0  0  0  0  0           0  0  0
    3.7000    0.4125    0.0000 C   0  0  0  0  0  0           0  0  0
   -0.1000   -1.1542    0.0000 C   0  0  1  0  0  0           0  0  0
    4.2792    1.0000    0.0000 C   0  0  0  0  0  0           0  0  0
    0.3042   -0.4375    0.0000 C   0  0  0  0  0  0           0  0  0
    3.4000   -1.6875    0.0000 C   0  0  0  0  0  0           0  0  0
    4.7792   -2.0542    0.0000 C   0  0  0  0  0  0           0  0  0
    3.9792   -2.2667    0.0000 C   0  0  0  0  0  0           0  0  0
    5.3625   -2.6417    0.0000 C   0  0  0  0  0  0           0  0  0
   -0.6875   -0.5667    0.0000 H   0  0  0  0  0  0           0  0  0
  2  1  2  0     0  0
  3 10  1  0     0  0
  4  6  2  0     0  0
  5 13  1  0     0  0
  6 16  1  0     0  0
  7  5  2  0     0  0
  8  3  2  0     0  0
  9  1  1  0     0  0
 10  4  1  0     0  0
 17 11  1  6     0  0
 12  1  1  0     0  0
 13 17  1  0     0  0
 14  8  1  0     0  0
 15  7  1  0     0  0
 16 18  1  0     0  0
 17 19  1  0     0  0
 18 12  1  0     0  0
 19 14  1  0     0  0
 20 15  1  0     0  0
 21 22  1  0     0  0
 22 20  1  0     0  0
 23 21  1  0     0  0
 17 24  1  1     0  0
M  END