
  SciTegic11201309402D

 50 52  0  0  0  0            999 V2000
    9.0121   -6.1419    0.0000 C   0  0
    8.2954   -6.5503    0.0000 C   0  0
    8.2908   -7.3705    0.0000 C   0  0
    9.0010   -7.7887    0.0000 C   0  0
    9.7177   -7.3803    0.0000 C   0  0
    9.7241   -6.5539    0.0000 C   0  0
    6.1492   -6.0901    0.0000 C   0  0
    6.8725   -5.6975    0.0000 C   0  0  1  0  0  0
    7.5767   -6.1285    0.0000 C   0  0
    7.5574   -6.9520    0.0000 O   0  0
    6.1258   -6.9136    0.0000 C   0  0
    5.3989   -7.3073    0.0000 C   0  0
    5.3791   -8.1296    0.0000 C   0  0
    6.0840   -8.5618    0.0000 C   0  0
    6.8113   -8.1624    0.0000 C   0  0
    6.8297   -7.3421    0.0000 C   0  0
    6.0623   -9.3854    0.0000 O   0  0
    9.7261   -5.7315    0.0000 C   0  0
   10.4423   -6.1434    0.0000 O   0  0
   10.4423   -4.4933    0.0000 C   0  0  2  0  0  0
   10.4423   -3.6694    0.0000 C   0  0
   11.1543   -4.9053    0.0000 C   0  0
   11.1543   -3.2575    0.0000 O   0  0
   11.8705   -4.4933    0.0000 C   0  0
   11.8705   -3.6694    0.0000 O   0  0
    9.7261   -2.4336    0.0000 C   0  0  1  0  0  0
   10.4423   -2.0175    0.0000 C   0  0
    6.1878   -4.4408    0.0000 C   0  0
    6.2112   -3.6131    0.0000 C   0  0
    5.4644   -4.8333    0.0000 O   0  0
   11.1781   -2.4453    0.0000 C   0  0
   10.4429   -1.1712    0.0000 C   0  0
    8.9900   -2.0060    0.0000 C   0  0
    8.9904   -1.1556    0.0000 O   0  0
    7.5176   -2.0054    0.0000 C   0  0  1  0  0  0
    6.7812   -2.4324    0.0000 C   0  0
    6.7809   -3.2829    0.0000 S   0  0
    7.5179   -1.1550    0.0000 C   0  0
    6.7819   -0.7316    0.0000 O   0  0
    5.3373   -9.7789    0.0000 P   0  0
    4.6339   -9.3477    0.0000 O   0  0
    5.3155  -10.6036    0.0000 O   0  0
    5.1448   -8.9767    0.0000 O   0  0
    6.8907   -4.8727    0.0000 N   0  0
    8.2952   -5.6799    0.0000 N   0  0
    9.7282   -4.9065    0.0000 N   0  0
    9.7268   -3.2586    0.0000 N   0  0
   12.5836   -4.8568    0.0000 N   0  0
    8.2536   -2.3781    0.0000 N   0  0
    8.2543   -0.7322    0.0000 N   0  0
 24 25  2  0
 26 27  1  6
 28 29  1  0
 28 30  2  0
 27 31  1  0
 27 32  1  0
 26 33  1  0
 33 34  2  0
 35 36  1  0
 36 37  1  0
 35 38  1  1
 38 39  2  0
 29 37  1  0
 17 40  1  0
 40 41  1  0
 40 42  2  0
 40 43  1  0
  1  2  1  0
  1  6  1  0
  2  3  1  0
  3  4  1  0
  4  5  1  0
  5  6  1  0
  8  7  1  6
  8  9  1  0
  9 10  2  0
  7 11  1  0
 11 12  2  0
 12 13  1  0
 13 14  2  0
 14 15  1  0
 15 16  2  0
 16 11  1  0
 14 17  1  0
  1 18  1  0
 18 19  2  0
 20 21  1  0
 20 22  1  6
 21 23  2  0
 22 24  1  0
 47 26  1  0
 21 47  1  0
  9 45  1  0
 45  1  1  0
 24 48  1  0
 44 28  1  0
  8 44  1  0
 33 49  1  0
 49 35  1  0
 18 46  1  0
 46 20  1  0
 38 50  1  0
M  END