
  SciTegic10311316212D

 28 31  0  0  0  0            999 V2000
    8.1210   -3.0830    0.0000 C   0  0
    8.1198   -3.9025    0.0000 C   0  0
    8.8279   -4.3115    0.0000 C   0  0
    9.5375   -3.9021    0.0000 C   0  0
    9.5347   -3.0794    0.0000 C   0  0
    8.8261   -2.6741    0.0000 C   0  0
    8.8178   -1.8560    0.0000 N   0  0
    9.4775   -1.3737    0.0000 C   0  0
    9.2226   -0.5973    0.0000 N   0  0
    8.4054   -0.5997    0.0000 N   0  0
    8.1553   -1.3777    0.0000 C   0  0
   10.2554   -1.6239    0.0000 S   0  0
   10.8611   -1.0753    0.0000 C   0  0
   11.6390   -1.3255    0.0000 C   0  0
   12.2447   -0.7768    0.0000 O   0  0
   11.8113   -2.1243    0.0000 O   0  0
    7.3784   -1.6366    0.0000 C   0  0
    6.7695   -1.0899    0.0000 C   0  0
    5.9937   -1.3442    0.0000 C   0  0
    7.2129   -2.4334    0.0000 C   0  0
    8.8277   -5.1287    0.0000 Cl  0  0
   10.2459   -4.3096    0.0000 Cl  0  0
    6.4395   -2.6906    0.0000 C   0  0
    5.8233   -2.1420    0.0000 C   0  0
    5.0421   -2.4017    0.0000 C   0  0
    4.8760   -3.2096    0.0000 C   0  0
    5.4972   -3.7574    0.0000 C   0  0
    6.2760   -3.4948    0.0000 C   0  0
  1  2  2  0
  2  3  1  0
  3  4  2  0
  4  5  1  0
  5  6  2  0
  6  1  1  0
  7  8  1  0
  8  9  2  0
  9 10  1  0
 10 11  2  0
 11  7  1  0
  6  7  1  0
  8 12  1  0
 12 13  1  0
 13 14  1  0
 14 15  1  0
 14 16  2  0
 17 18  2  0
 18 19  1  0
 19 24  2  0
 23 20  2  0
 20 17  1  0
 11 17  1  0
  3 21  1  0
  4 22  1  0
 23 24  1  0
 24 25  1  0
 25 26  2  0
 26 27  1  0
 27 28  2  0
 28 23  1  0
M  END