
  SciTegic05161214222D

 31 34  0  0  0  0            999 V2000
   -1.4957   -0.9874    0.0000 N   0  0
   -2.3206   -0.9874    0.0000 N   0  0
   -2.5774   -1.7756    0.0000 C   0  0
   -1.9052   -2.2602    0.0000 N   0  0
   -1.2389   -1.7756    0.0000 C   0  0
   -0.4382   -1.9926    0.0000 C   0  0  1  0  0  0
   -0.1078   -2.7506    0.0000 N   0  0
   -0.4992   -3.4786    0.0000 C   0  0
   -3.3616   -2.0317    0.0000 C   0  0
   -0.0312   -1.2750    0.0000 C   0  0
   -1.3101   -3.6334    0.0000 C   0  0
   -1.9345   -3.0884    0.0000 C   0  0
   -2.6459   -3.5138    0.0000 S   0  0
   -2.4611   -4.3218    0.0000 C   0  0
   -1.6356   -4.3956    0.0000 C   0  0
   -3.0035   -4.9434    0.0000 C   0  0
   -1.2121   -5.1037    0.0000 C   0  0
   -0.0862   -4.1925    0.0000 C   0  0
   -0.5008   -4.9043    0.0000 C   0  0
   -0.0881   -5.6177    0.0000 C   0  0
    0.7377   -5.6171    0.0000 C   0  0
    1.1491   -4.8971    0.0000 C   0  0
    0.7340   -4.1866    0.0000 C   0  0
    1.1520   -6.3305    0.0000 Cl  0  0
   -0.4492   -0.5639    0.0000 C   0  0
   -0.0422    0.1538    0.0000 O   0  0
   -1.2741   -0.5702    0.0000 O   0  0
    0.7827    0.1601    0.0000 C   0  0
    1.1897    0.8777    0.0000 C   0  0
    1.2007   -0.5511    0.0000 C   0  0
    1.5871    0.3238    0.0000 C   0  0
 14 15  2  0
 15 11  1  0
  6  7  1  0
 14 16  1  0
  3  4  1  0
 15 17  1  0
  7  8  2  0
  8 18  1  0
 11  8  1  0
 18 19  2  0
 19 20  1  0
  3  9  1  0
 20 21  2  0
  2  3  2  0
 21 22  1  0
  6 10  1  6
 22 23  2  0
 23 18  1  0
 11 12  2  0
 21 24  1  0
  4  5  1  0
 10 25  1  0
  5  1  2  0
 25 26  1  0
  5  6  1  0
 25 27  2  0
  4 12  1  0
 26 28  1  0
  1  2  1  0
 28 29  1  0
 12 13  1  0
 28 30  1  0
 13 14  1  0
 28 31  1  0
M  END