
  SciTegic10311217562D

 49 44  0  0  0  0            999 V2000
    4.3083    1.2500    0.0000 Na  0  3
    0.1030   -2.8334    0.0000 C   0  0
    0.8187   -2.4229    0.0000 C   0  0
    1.5319   -2.8375    0.0000 N   0  0
    2.2476   -2.4271    0.0000 C   0  0
    2.9609   -2.8417    0.0000 C   0  0
    2.2500   -1.6021    0.0000 O   0  0
    3.6766   -2.4313    0.0000 N   0  0
    4.3898   -2.8459    0.0000 C   0  0
    5.1055   -2.4355    0.0000 O   0  0
    4.3874   -3.6709    0.0000 C   0  0
    1.5370    1.2791    0.0000 S   0  0
    2.2515    0.8666    0.0000 O   0  5
    1.1169    1.9958    0.0000 O   0  0
    1.9419    1.9958    0.0000 O   0  0
   -1.3208   -0.3667    0.0000 C   0  0  2  0  0  0
   -1.3208   -1.1917    0.0000 C   0  0  1  0  0  0
   -0.6088   -1.6000    0.0000 C   0  0  2  0  0  0
    0.1032   -1.1917    0.0000 O   0  0
    0.1032   -0.3667    0.0000 C   0  0  1  0  0  0
   -0.6088    0.0500    0.0000 C   0  0  1  0  0  0
   -2.0365    0.0437    0.0000 O   0  0
   -2.0347   -1.6052    0.0000 O   0  0
   -0.6088    0.8750    0.0000 O   0  0
   -0.6088   -2.4250    0.0000 O   0  0
   -1.3233    1.2875    0.0000 S   0  0
   -2.0377    0.8750    0.0000 O   0  5
   -1.7416    2.0042    0.0000 O   0  0
   -0.9166    2.0042    0.0000 O   0  0
   -2.7497   -0.3709    0.0000 S   0  0
   -3.4654    0.0396    0.0000 O   0  5
   -3.1666   -1.0833    0.0000 O   0  0
   -2.3416   -1.0833    0.0000 O   0  0
   -2.0335   -2.4302    0.0000 S   0  0
   -2.7473   -2.8437    0.0000 O   0  5
   -1.2125   -2.4292    0.0000 O   0  0
   -1.6291   -3.1417    0.0000 O   0  0
    0.8189    0.0437    0.0000 C   0  0
    0.8213    0.8687    0.0000 O   0  0
    3.6790   -1.6063    0.0000 C   0  0
    4.3946   -1.1959    0.0000 C   0  0
    5.1007   -4.0855    0.0000 C   0  0
    5.0982   -4.9105    0.0000 C   0  0
    5.8115   -5.3251    0.0000 O   0  5
    4.3826   -5.3209    0.0000 O   0  0
   -4.8458    0.0958    0.0000 Na  0  3
   -3.3125    1.3417    0.0000 Na  0  3
   -3.8792   -3.5583    0.0000 Na  0  3
    3.4000   -6.1500    0.0000 Na  0  3
  6  8  1  0
 24 26  1  0
 12 15  2  0
 26 27  1  0
  4  5  1  0
 26 28  2  0
 16 17  1  0
 26 29  2  0
  8  9  1  0
 22 30  1  0
 30 31  1  0
  9 10  2  0
 30 32  2  0
  5  6  1  0
 30 33  2  0
  9 11  1  0
  3  4  1  0
 23 34  1  0
 16 21  1  0
 34 35  1  0
 17 18  1  0
 34 36  2  0
 18 19  1  0
 34 37  2  0
 19 20  1  0
 20 21  1  0
 20 38  1  1
  5  7  2  0
 38 39  1  0
 39 12  1  0
 25  2  1  0
 16 22  1  1
  8 40  1  0
 12 13  1  0
 40 41  1  0
 17 23  1  1
 11 42  1  0
  2  3  1  0
 42 43  1  0
 21 24  1  6
 43 44  1  0
 12 14  2  0
 43 45  2  0
 18 25  1  6
M  CHG  8   1   1  13  -1  27  -1  31  -1  35  -1  44  -1  46   1  47   1
M  CHG  2  48   1  49   1
M  END