
          11280715012D 1   1.00000     0.00000     0

 26 28  0     0  0            999 V2000
    1.3750   -0.9417    0.0000 C   0  0  0  0  0  0           0  0  0
    7.9167   -3.0167    0.0000 N   0  0  0  0  0  0           0  0  0
    4.2417   -1.7667    0.0000 C   0  0  0  0  0  0           0  0  0
    1.3750   -1.7667    0.0000 C   0  0  3  0  0  0           0  0  0
    2.0542   -0.4500    0.0000 S   0  0  0  0  0  0           0  0  0
    9.1417   -2.4667    0.0000 N   0  0  0  0  0  0           0  0  0
    8.7292   -3.1875    0.0000 C   0  0  0  0  0  0           0  0  0
    7.8292   -2.1875    0.0000 C   0  0  0  0  0  0           0  0  0
    4.2417   -0.9417    0.0000 N   0  0  0  0  0  0           0  0  0
    0.6542   -2.1875    0.0000 C   0  0  0  0  0  0           0  0  0
    0.6542   -3.0042    0.0000 N   0  0  0  0  0  0           0  0  0
    8.5917   -1.8500    0.0000 C   0  0  0  0  0  0           0  0  0
    0.7042   -0.4500    0.0000 C   0  0  0  0  0  0           0  0  0
    1.7917    0.3333    0.0000 C   0  0  0  0  0  0           0  0  0
    0.9500    0.3333    0.0000 C   0  0  0  0  0  0           0  0  0
    3.5250   -2.1875    0.0000 N   0  0  0  0  0  0           0  0  0
    4.9625   -2.1875    0.0000 N   0  0  0  0  0  0           0  0  0
    2.8042   -1.7667    0.0000 C   0  0  0  0  0  0           0  0  0
    2.0917   -2.1875    0.0000 C   0  0  0  0  0  0           0  0  0
    7.1125   -1.7667    0.0000 C   0  0  0  0  0  0           0  0  0
   -0.0583   -3.4250    0.0000 C   0  0  0  0  0  0           0  0  0
   -0.0625   -1.7667    0.0000 C   0  0  0  0  0  0           0  0  0
    5.6792   -1.7667    0.0000 C   0  0  0  0  0  0           0  0  0
    6.4000   -2.1875    0.0000 C   0  0  0  0  0  0           0  0  0
   -0.7833   -3.0125    0.0000 C   0  0  0  0  0  0           0  0  0
   -0.7833   -2.1792    0.0000 C   0  0  0  0  0  0           0  0  0
  2  8  1  0     0  0
  3 16  1  0     0  0
  4  1  1  0     0  0
  5  1  1  0     0  0
  6 12  1  0     0  0
  7  2  2  0     0  0
  8 20  1  0     0  0
  9  3  2  0     0  0
 10  4  1  0     0  0
 11 10  1  0     0  0
 12  8  2  0     0  0
 13  1  2  0     0  0
 14  5  1  0     0  0
 15 13  1  0     0  0
 16 18  1  0     0  0
 17  3  1  0     0  0
 18 19  1  0     0  0
 19  4  1  0     0  0
 20 24  1  0     0  0
 21 11  2  0     0  0
 22 10  2  0     0  0
 23 17  1  0     0  0
 24 23  1  0     0  0
 25 26  2  0     0  0
 26 22  1  0     0  0
 15 14  2  0     0  0
 25 21  1  0     0  0
  7  6  1  0     0  0
M  END