
  SciTegic01061111512D

 42 43  0  0  0  0            999 V2000
   11.9167   -2.7792    0.0000 Na  0  3
   12.0818   -0.4511    0.0000 C   0  0  2  0  0  0
   11.2568   -0.4511    0.0000 O   0  0
   10.8443    0.2634    0.0000 C   0  0  2  0  0  0
   11.2568    0.9778    0.0000 C   0  0  1  0  0  0
   12.0818    0.9778    0.0000 C   0  0  2  0  0  0
   12.4943    0.2634    0.0000 C   0  0
   11.9385   -1.2636    0.0000 C   0  0
   12.8570   -0.7333    0.0000 O   0  0
   14.4075   -1.2976    0.0000 C   0  0
   13.7755   -1.8279    0.0000 C   0  0
   13.9188   -2.6404    0.0000 C   0  0
   14.6940   -2.9225    0.0000 C   0  0
   15.3260   -2.3922    0.0000 C   0  0
   15.1828   -1.5798    0.0000 C   0  0
   13.0003   -1.5457    0.0000 C   0  0
   11.1633   -1.5457    0.0000 O   0  5
   12.5705   -1.7939    0.0000 O   0  0
   11.2568    2.4068    0.0000 C   0  0
   10.8443    3.1213    0.0000 O   0  0
   12.0818    2.4068    0.0000 C   0  0
   10.0193    0.2634    0.0000 C   0  0  1  0  0  0
   10.8443    1.6923    0.0000 N   0  0
    9.6068   -0.4511    0.0000 C   0  0  1  0  0  0
    9.6068    0.9778    0.0000 O   0  0
   10.0193   -1.1656    0.0000 C   0  0
    8.7818   -0.4511    0.0000 O   0  0
    9.6068   -1.8800    0.0000 N   0  0
   10.0193   -2.5945    0.0000 C   0  0
    9.6068   -3.3090    0.0000 C   0  0
   10.8443   -2.5945    0.0000 O   0  0
    8.7818   -3.3090    0.0000 C   0  0
    8.3693   -4.0234    0.0000 C   0  0
    8.7818   -4.7379    0.0000 C   0  0
    9.6068   -4.7379    0.0000 C   0  0
   10.0193   -4.0234    0.0000 C   0  0
   10.4250   -0.4458    0.0000 H   0  0
   13.2868   -3.1707    0.0000 F   0  0
   14.8373   -3.7350    0.0000 F   0  0
   12.4943    1.6923    0.0000 O   0  0
   12.4943    3.1213    0.0000 F   0  0
    8.3693   -5.4524    0.0000 Cl  0  0
  5  6  1  0
  6  7  1  0
  7  2  1  0
  2  8  1  6
  2  9  1  0
 10 11  2  0
 11 12  1  0
 12 13  2  0
 13 14  1  0
 14 15  2  0
 15 10  1  0
 11 16  1  0
 16  9  1  0
  8 17  1  0
  8 18  2  0
  5 23  1  6
 23 19  1  0
 19 20  2  0
 19 21  1  0
  6 40  1  1
  4 22  1  0
 22 24  1  0
 22 25  1  1
 24 26  1  0
 24 27  1  1
 26 28  1  0
 28 29  1  0
 29 30  1  0
 29 31  2  0
 30 32  2  0
 32 33  1  0
 33 34  2  0
 34 35  1  0
 35 36  2  0
 36 30  1  0
  4 37  1  6
 12 38  1  0
 13 39  1  0
  2  3  1  0
  4  3  1  0
 21 41  1  0
  5  4  1  0
 34 42  1  0
M  CHG  2   1   1  17  -1
M  END