
  Mrv0541 04051115152D          

 20 22  0  0  0  0            999 V2000
    1.6685   -0.6206    0.0000 C   0  0  0  0  0  0  0  0  0  0  0  0
    1.1048   -1.2230    0.0000 N   0  0  0  0  0  0  0  0  0  0  0  0
    0.3577   -0.8730    0.0000 C   0  0  0  0  0  0  0  0  0  0  0  0
    0.4598   -0.0543    0.0000 C   0  0  1  0  0  0  0  0  0  0  0  0
   -0.3296   -0.2941    0.0000 C   0  0  0  0  0  0  0  0  0  0  0  0
   -0.5167   -1.0976    0.0000 C   0  0  0  0  0  0  0  0  0  0  0  0
   -1.3061   -1.3374    0.0000 C   0  0  0  0  0  0  0  0  0  0  0  0
   -1.4931   -2.1409    0.0000 F   0  0  0  0  0  0  0  0  0  0  0  0
   -1.9084   -0.7736    0.0000 C   0  0  0  0  0  0  0  0  0  0  0  0
   -1.7214    0.0299    0.0000 C   0  0  0  0  0  0  0  0  0  0  0  0
   -0.9320    0.2697    0.0000 C   0  0  0  0  0  0  0  0  0  0  0  0
   -0.7449    1.0732    0.0000 O   0  0  0  0  0  0  0  0  0  0  0  0
    0.0445    1.3130    0.0000 C   0  0  2  0  0  0  0  0  0  0  0  0
    0.2315    2.1165    0.0000 C   0  0  0  0  0  0  0  0  0  0  0  0
   -0.3708    2.6802    0.0000 N   0  0  0  0  0  0  0  0  0  0  0  0
    1.0209    2.3563    0.0000 O   0  0  0  0  0  0  0  0  0  0  0  0
    0.6468    0.7492    0.0000 C   0  0  0  0  0  0  0  0  0  0  0  0
    1.2699    0.1016    0.0000 N   0  0  0  0  0  0  0  0  0  0  0  0
   -0.2060   -1.4753    0.0000 O   0  0  0  0  0  0  0  0  0  0  0  0
    2.4872   -0.7227    0.0000 O   0  0  0  0  0  0  0  0  0  0  0  0
  1  2  1  0  0  0  0
  1 18  1  0  0  0  0
  1 20  2  0  0  0  0
  3  2  1  0  0  0  0
  3  4  1  0  0  0  0
  3 19  2  0  0  0  0
  5  4  1  0  0  0  0
  4 17  1  1  0  0  0
  4 18  1  0  0  0  0
  5  6  2  0  0  0  0
 11  5  1  0  0  0  0
  6  7  1  0  0  0  0
  7  8  1  0  0  0  0
  7  9  2  0  0  0  0
  9 10  1  0  0  0  0
 11 10  2  0  0  0  0
 11 12  1  0  0  0  0
 13 12  1  0  0  0  0
 13 14  1  6  0  0  0
 17 13  1  0  0  0  0
 14 15  1  0  0  0  0
 14 16  2  0  0  0  0
M  END