
  SciTegic09261414462D

 36 38  0  0  0  0            999 V2000
    3.9097   -1.8954    0.0000 C   0  0
    4.8458   -5.7431    0.0000 C   0  0  2  0  0  0
    8.4180   -4.5174    0.0000 O   0  0
    4.8412   -8.2162    0.0000 C   0  0
    3.2056   -4.7923    0.0000 C   0  0
    5.5549   -6.1557    0.0000 C   0  0  2  0  0  0
    7.7051   -4.9325    0.0000 C   0  0
    3.9203   -3.5589    0.0000 C   0  0
    3.4112   -7.3912    0.0000 C   0  0
    3.2074   -3.1442    0.0000 S   0  0
    4.8449   -4.9203    0.0000 N   0  0
    1.9823   -7.3892    0.0000 Cl  0  0
    6.9885   -4.5122    0.0000 C   0  0
    3.1948   -1.4868    0.0000 C   0  0
    2.7011   -6.1517    0.0000 C   0  0
    7.6978   -5.7570    0.0000 O   0  0
    6.2748   -5.7452    0.0000 O   0  0
    2.7908   -3.8577    0.0000 O   0  0
    6.2702   -8.2182    0.0000 C   0  0
    3.1990   -2.3143    0.0000 C   0  0
    2.4819   -2.7301    0.0000 O   0  0
    4.8403   -7.3933    0.0000 C   0  0
    2.4758   -1.9100    0.0000 C   0  0
    3.9175   -4.3839    0.0000 C   0  0  1  0  0  0
    6.2693   -7.3953    0.0000 C   0  0
    6.9794   -8.6307    0.0000 Cl  0  0
    3.4168   -5.7412    0.0000 C   0  0
    5.5596   -3.6827    0.0000 O   0  0
    2.6984   -6.9766    0.0000 C   0  0
    4.1259   -6.1537    0.0000 C   0  0
    4.1268   -6.9766    0.0000 C   0  0
    5.5605   -4.5056    0.0000 C   0  0
    6.2717   -4.9234    0.0000 C   0  0  1  0  0  0
    5.5504   -8.6287    0.0000 C   0  0
    5.5559   -6.9786    0.0000 C   0  0
    2.4879   -4.3753    0.0000 C   0  0
 10 20  1  0
 20 14  1  0
 33 13  1  1
 15 27  1  0
 13  7  1  0
 29 15  2  0
 11  2  1  0
 17  6  1  0
 31  9  2  0
 30 27  2  0
  6 35  1  6
  9 29  1  0
  3  7  1  0
  2 30  1  1
 10 18  2  0
 24  8  1  0
 35 25  1  0
 20  1  1  0
 20 23  1  0
 30 31  1  0
 19 26  1  0
 29 12  1  0
 32 33  1  0
 34  4  2  0
  7 16  2  0
 11 24  1  0
 19 34  1  0
 33 17  1  0
  4 22  1  0
  8 10  1  0
 24  5  1  1
 35 22  2  0
 32 28  2  0
 25 19  2  0
 11 32  1  0
 10 21  2  0
  6  2  1  0
  5 36  1  0
M  END