
  SciTegic10301317112D

 32 33  0  0  0  0            999 V2000
    0.1625   -1.6042    0.0000 S   0  0
    9.7917   -4.9542    0.0000 N   0  0
    8.9667   -4.9625    0.0000 C   0  0
   10.5667   -4.6625    0.0000 C   0  0  2  0  0  0
    3.4542   -1.5917    0.0000 C   0  0
   10.7917   -3.8667    0.0000 C   0  0
    0.9792   -1.6042    0.0000 C   0  0
    3.8667   -2.3042    0.0000 N   0  0
    0.1542   -2.4292    0.0000 O   0  0
    0.1625   -0.7792    0.0000 O   0  0
    7.2417   -3.5875    0.0000 C   0  0
    5.1125   -3.0125    0.0000 C   0  0
    2.6292   -1.6000    0.0000 C   0  0
    7.7292   -4.2542    0.0000 N   0  0
   -0.6708   -1.6000    0.0000 N   0  0
    8.5542   -4.2500    0.0000 C   0  0
    5.9375   -3.0042    0.0000 N   0  0
    8.5667   -5.6792    0.0000 O   0  0
    3.8625   -0.8792    0.0000 O   0  0
   10.2167   -3.2792    0.0000 O   0  0
    4.7042   -3.7292    0.0000 O   0  0
    7.5792   -2.8292    0.0000 O   0  0
    1.3875   -0.8917    0.0000 C   0  0
    1.4000   -2.3167    0.0000 C   0  0
    2.2167   -2.3167    0.0000 C   0  0
    2.2042   -0.8875    0.0000 C   0  0
    4.6917   -2.3000    0.0000 C   0  0
    6.4250   -3.6750    0.0000 C   0  0
    9.8292   -5.7750    0.0000 C   0  0
   11.5917   -3.6667    0.0000 O   0  0
   11.0792   -5.3125    0.0000 C   0  0
   10.6250   -6.0000    0.0000 C   0  0
  2  3  1  0
  3 16  1  0
  4  2  1  0
  5 13  1  0
  4  6  1  6
  7  1  1  0
  8  5  1  0
  9  1  2  0
 10  1  2  0
 11 28  1  0
 12 27  1  0
 13 25  2  0
 14 11  1  0
 15  1  1  0
 16 14  1  0
 17 12  1  0
 18  3  2  0
 19  5  2  0
 20  6  2  0
 21 12  2  0
 22 11  2  0
 23  7  1  0
 24  7  2  0
 25 24  1  0
 26 23  2  0
 27  8  1  0
 28 17  1  0
 29  2  1  0
 30  6  1  0
 31  4  1  0
 32 29  1  0
 26 13  1  0
 31 32  1  0
M  END