
  SciTegic02271515152D

 29 31  0  0  0  0            999 V2000
   21.1176   -2.6662    0.0000 C   0  0
   21.1165   -3.4857    0.0000 C   0  0
   21.8245   -3.8947    0.0000 C   0  0
   22.5342   -3.4852    0.0000 C   0  0
   22.5313   -2.6626    0.0000 C   0  0
   21.8227   -2.2573    0.0000 C   0  0
   20.4098   -2.2577    0.0000 C   0  0
   19.7022   -2.6665    0.0000 N   0  0
   23.2385   -3.8908    0.0000 C   0  0
   23.3252   -4.7033    0.0000 C   0  0
   24.1248   -4.8720    0.0000 N   0  0
   24.5324   -4.1636    0.0000 C   0  0
   23.9845   -3.5573    0.0000 O   0  0
   18.9944   -2.2581    0.0000 C   0  0
   18.2868   -2.6668    0.0000 O   0  0
   18.9942   -1.4409    0.0000 C   0  0  2  0  0  0
   19.6606   -0.9614    0.0000 C   0  0
   19.4079   -0.1843    0.0000 C   0  0  2  0  0  0
   18.5906   -0.1845    0.0000 C   0  0
   18.3384   -0.9618    0.0000 N   0  0
   17.5609   -1.2134    0.0000 C   0  0
   16.9543   -0.6659    0.0000 C   0  0
   17.3901   -2.0126    0.0000 O   0  0
   16.1768   -0.9176    0.0000 C   0  0
   19.8880    0.4806    0.0000 O   0  0
   15.5701   -0.3701    0.0000 C   0  0
   16.0060   -1.7167    0.0000 C   0  0
   15.3822   -1.1267    0.0000 C   0  0
   22.7188   -5.2511    0.0000 C   0  0
  1  2  2  0
  2  3  1  0
  3  4  2  0
  4  5  1  0
  5  6  2  0
  6  1  1  0
  1  7  1  0
  7  8  1  0
  9 10  2  0
 10 11  1  0
 11 12  2  0
 12 13  1  0
 13  9  1  0
  4  9  1  0
  8 14  1  0
 14 15  2  0
 16 14  1  1
 16 17  1  0
 17 18  1  0
 18 19  1  0
 19 20  1  0
 20 16  1  0
 20 21  1  0
 21 22  1  0
 21 23  2  0
 22 24  1  0
 18 25  1  6
 24 26  1  0
 24 27  1  0
 24 28  1  0
 10 29  1  0
M  END