
  SciTegic04071410272D

 24 27  0  0  0  0            999 V2000
   14.3690   -5.3217    0.0000 C   0  0  1  0  0  0
   15.4360   -6.1236    0.0000 C   0  0  2  0  0  0
   14.9198   -5.6949    0.0000 C   0  0
   13.9481   -5.6949    0.0000 C   0  0  1  0  0  0
   13.8084   -4.8818    0.0000 N   0  0
   15.2978   -5.3062    0.0000 C   0  0
   13.4282   -6.4072    0.0000 C   0  0
   14.0485   -6.0303    0.0000 C   0  0
   13.3858   -4.1732    0.0000 C   0  0
   15.8478   -6.8385    0.0000 C   0  0
   15.4346   -7.5525    0.0000 C   0  0
   15.0214   -8.2666    0.0000 C   0  0
   16.1486   -7.9657    0.0000 C   0  0
   14.7205   -7.1393    0.0000 O   0  0
   14.1790   -4.5188    0.0000 H   0  0
   13.3453   -5.1316    0.0000 H   0  0
   16.9026   -7.6309    0.0000 C   0  0
   17.4541   -8.2445    0.0000 C   0  0
   17.0408   -8.9586    0.0000 C   0  0
   16.2340   -8.7863    0.0000 S   0  0
   15.3562   -9.0206    0.0000 S   0  0
   14.7425   -9.5720    0.0000 C   0  0
   14.0285   -9.1588    0.0000 C   0  0
   14.2008   -8.3520    0.0000 C   0  0
  4  5  1  0
 11 12  1  0
  1  5  1  0
 11 13  1  0
  1  6  1  0
 11 14  1  0
  6  2  1  0
  1 15  1  6
  4  7  1  0
  4 16  1  1
 13 17  2  0
  1  8  1  0
  7  8  1  0
  5  9  1  0
 17 18  1  0
 18 19  2  0
 19 20  1  0
 20 13  1  0
 12 21  1  0
  2  3  1  0
  2 10  1  6
  3  4  1  0
 10 11  1  0
 21 22  1  0
 22 23  2  0
 23 24  1  0
 24 12  2  0
M  END