
          11280715392D 1   1.00000     0.00000     0

 49 53  0     1  0            999 V2000
    2.6625   -2.1667    0.0000 C   0  0  1  0  0  0           0  0  0
    1.9542   -1.7625    0.0000 C   0  0  1  0  0  0           0  0  0
    3.3750   -0.9375    0.0000 C   0  0  1  0  0  0           0  0  0
    3.3750   -1.7625    0.0000 C   0  0  2  0  0  0           0  0  0
    1.9542   -0.9375    0.0000 C   0  0  2  0  0  0           0  0  0
    2.6625   -0.5167    0.0000 C   0  0  1  0  0  0           0  0  0
    2.6542   -3.8167    0.0000 P   0  0  3  0  0  0           0  0  0
    0.4375   -2.3875    0.0000 P   0  0  3  0  0  0           0  0  0
    4.8875   -0.3042    0.0000 P   0  0  3  0  0  0           0  0  0
   12.8375   -1.1000    0.0000 C   0  0  0  0  0  0           0  0  0
    1.2375   -2.1750    0.0000 O   0  0  0  0  0  0           0  0  0
    2.6625   -2.9917    0.0000 O   0  0  0  0  0  0           0  0  0
    4.0917   -0.5250    0.0000 O   0  0  0  0  0  0           0  0  0
   12.1375   -0.6792    0.0000 C   0  0  0  0  0  0           0  0  0
   12.8292   -1.9167    0.0000 C   0  0  0  0  0  0           0  0  0
   11.4292   -1.0792    0.0000 C   0  0  0  0  0  0           0  0  0
   13.5542   -0.6917    0.0000 C   0  0  0  0  0  0           0  0  0
    0.2167   -1.5875    0.0000 O   0  0  0  0  0  0           0  0  0
    1.8292   -3.8167    0.0000 O   0  0  0  0  0  0           0  0  0
    4.8792   -1.1292    0.0000 O   0  0  0  0  0  0           0  0  0
    9.2792    0.1250    0.0000 C   0  0  0  0  0  0           0  0  0
   12.1375    0.1375    0.0000 C   0  0  0  0  0  0           0  0  0
   12.1292   -2.3125    0.0000 C   0  0  0  0  0  0           0  0  0
   13.5167   -2.3292    0.0000 C   0  0  0  0  0  0           0  0  0
   11.4167   -1.9000    0.0000 C   0  0  0  0  0  0           0  0  0
    9.2750    0.9500    0.0000 O   0  0  0  0  0  0           0  0  0
   12.8500    0.5458    0.0000 C   0  0  0  0  0  0           0  0  0
   13.5542    0.1375    0.0000 C   0  0  0  0  0  0           0  0  0
   14.2667   -1.1042    0.0000 C   0  0  0  0  0  0           0  0  0
   -0.3875   -2.3792    0.0000 O   0  0  0  0  0  0           0  0  0
    3.4792   -3.8167    0.0000 O   0  0  0  0  0  0           0  0  0
    0.4292   -3.2125    0.0000 O   0  0  0  0  0  0           0  0  0
    2.6500   -4.6417    0.0000 O   0  0  0  0  0  0           0  0  0
    4.0917   -2.1750    0.0000 O   0  0  0  0  0  0           0  0  0
    4.8792    0.5208    0.0000 O   0  0  0  0  0  0           0  0  0
   14.2625   -1.9292    0.0000 C   0  0  0  0  0  0           0  0  0
    1.2375   -0.5250    0.0000 O   0  0  0  0  0  0           0  0  0
    2.6625    0.3083    0.0000 O   0  0  0  0  0  0           0  0  0
    5.7125   -0.3042    0.0000 O   0  0  0  0  0  0           0  0  0
    8.5667   -0.2917    0.0000 N   0  0  0  0  0  0           0  0  0
    7.1417   -0.3000    0.0000 C   0  0  0  0  0  0           0  0  0
    9.9917   -0.2792    0.0000 C   0  0  0  0  0  0           0  0  0
   10.7042    0.1333    0.0000 C   0  0  0  0  0  0           0  0  0
   12.8042   -3.5250    0.0000 C   0  0  0  0  0  0           0  0  0
   11.4250   -0.2750    0.0000 C   0  0  0  0  0  0           0  0  0
    7.8500    0.1208    0.0000 C   0  0  0  0  0  0           0  0  0
   13.5042   -3.1292    0.0000 C   0  0  0  0  0  0           0  0  0
   12.1167   -3.1125    0.0000 C   0  0  0  0  0  0           0  0  0
    6.4250    0.1083    0.0000 C   0  0  0  0  0  0           0  0  0
  2  1  1  0     0  0
  3  4  1  0     0  0
  4  1  1  0     0  0
  5  2  1  0     0  0
  6  3  1  0     0  0
  7 12  1  0     0  0
  8 11  1  0     0  0
  9 13  1  0     0  0
 10 14  1  0     0  0
  2 11  1  6     0  0
  1 12  1  1     0  0
  3 13  1  1     0  0
 14 22  2  0     0  0
 15 10  1  0     0  0
 16 14  1  0     0  0
 17 28  1  0     0  0
 18  8  2  0     0  0
 19  7  2  0     0  0
 20  9  2  0     0  0
 21 40  1  0     0  0
 22 45  1  0     0  0
 23 25  1  0     0  0
 24 15  1  0     0  0
 25 16  2  0     0  0
 26 21  2  0     0  0
 27 22  1  0     0  0
 28 27  2  0     0  0
 29 17  1  0     0  0
 30  8  1  0     0  0
 31  7  1  0     0  0
 32  8  1  0     0  0
 33  7  1  0     0  0
  4 34  1  6     0  0
 35  9  1  0     0  0
 36 29  2  0     0  0
  5 37  1  1     0  0
  6 38  1  1     0  0
 39  9  1  0     0  0
 40 46  1  0     0  0
 41 49  1  0     0  0
 42 21  1  0     0  0
 43 42  1  0     0  0
 44 48  2  0     0  0
 45 43  1  0     0  0
 46 41  1  0     0  0
 47 24  2  0     0  0
 48 23  1  0     0  0
 49 39  1  0     0  0
  6  5  1  0     0  0
 17 10  2  0     0  0
 23 15  2  0     0  0
 36 24  1  0     0  0
 47 44  1  0     0  0
M  END