
  SciTegic05071317012D

 24 25  0  0  0  0            999 V2000
   15.8760  -31.3826    0.0000 C   0  0  2  0  0  0
   16.1301  -32.1701    0.0000 O   0  0
   16.9551  -32.1701    0.0000 C   0  0  2  0  0  0
   17.2119  -31.3860    0.0000 C   0  0
   16.5426  -30.8993    0.0000 O   0  0
   17.4392  -32.8381    0.0000 C   0  0
   17.1028  -33.5914    0.0000 N   0  3
   16.2822  -33.6767    0.0000 C   0  0
   17.5870  -34.2594    0.0000 C   0  0
   16.8843  -34.3868    0.0000 C   0  0
   15.0513  -31.3586    0.0000 C   0  0
   14.6597  -30.6325    0.0000 C   0  0
   14.6182  -32.0608    0.0000 C   0  0
   15.0901  -29.9313    0.0000 C   0  0
   14.6992  -29.2056    0.0000 C   0  0
   13.8737  -29.1812    0.0000 C   0  0
   13.4406  -29.8884    0.0000 C   0  0
   13.8340  -30.6112    0.0000 C   0  0
   13.7959  -32.0365    0.0000 C   0  0
   13.3629  -32.7379    0.0000 C   0  0
   13.7545  -33.4650    0.0000 C   0  0
   14.5835  -33.4864    0.0000 C   0  0
   15.0127  -32.7844    0.0000 C   0  0
   18.3260  -33.2826    0.0000 I   0  5
  2  3  1  0
  3  4  1  0
  4  5  1  0
  5  1  1  0
  1  2  1  0
  3  6  1  6
  6  7  1  0
  7  8  1  0
  7  9  1  0
  7 10  1  0
  1 11  1  1
 11 12  1  0
 11 13  1  0
 12 14  2  0
 14 15  1  0
 15 16  2  0
 16 17  1  0
 17 18  2  0
 18 12  1  0
 13 19  2  0
 19 20  1  0
 20 21  2  0
 21 22  1  0
 22 23  2  0
 23 13  1  0
M  CHG  2   7   1  24  -1
M  END