
          11280714582D 1   1.00000     0.00000     0

 38 40  0     0  0            999 V2000
   -0.4833    0.4000    0.0000 C   0  0  0  0  0  0           0  0  0
    0.4375   -0.0875    0.0000 C   0  0  0  0  0  0           0  0  0
    0.1167    0.4208    0.0000 C   0  0  0  0  0  0           0  0  0
    1.3542   -0.5750    0.0000 C   0  0  0  0  0  0           0  0  0
    1.0375   -0.0667    0.0000 C   0  0  0  0  0  0           0  0  0
    2.0292   -1.2750    0.0000 S   0  0  0  0  0  0           0  0  0
    1.0667   -1.1042    0.0000 C   0  0  0  0  0  0           0  0  0
   -0.7958    0.9125    0.0000 C   0  0  0  0  0  0           0  0  0
    1.9500   -0.6792    0.0000 N   0  0  0  0  0  0           0  0  0
    1.4917   -1.5417    0.0000 N   0  0  0  0  0  0           0  0  0
   -0.7875   -1.9250    0.0000 C   0  0  0  0  0  0           0  0  0
    0.4042    0.9500    0.0000 C   0  0  0  0  0  0           0  0  0
    0.1542   -0.6167    0.0000 C   0  0  0  0  0  0           0  0  0
    0.4667   -1.1250    0.0000 C   0  0  0  0  0  0           0  0  0
   -0.2625   -1.6292    0.0000 C   0  0  0  0  0  0           0  0  0
   -1.3083   -1.6167    0.0000 C   0  0  0  0  0  0           0  0  0
   -0.7625   -0.1292    0.0000 C   0  0  0  0  0  0           0  0  0
   -0.7708   -0.7292    0.0000 C   0  0  0  0  0  0           0  0  0
   -1.3958    0.8958    0.0000 C   0  0  0  0  0  0           0  0  0
   -1.2958   -1.0167    0.0000 C   0  0  0  0  0  0           0  0  0
   -0.2583   -1.0292    0.0000 C   0  0  0  0  0  0           0  0  0
    1.0042    0.9708    0.0000 O   0  5  0  0  0  0           0  0  0
   -0.5125    1.4458    0.0000 O   0  0  0  0  0  0           0  0  0
    0.0875    1.4583    0.0000 O   0  0  0  0  0  0           0  0  0
   -1.7083    1.4000    0.0000 C   0  0  0  0  0  0           0  0  0
   -1.6750    0.3625    0.0000 C   0  0  0  0  0  0           0  0  0
   -0.8000   -2.5250    0.0000 O   0  0  0  0  0  0           0  0  0
   -1.8250   -1.9125    0.0000 O   0  0  0  0  0  0           0  0  0
    0.2542   -1.9375    0.0000 O   0  0  0  0  0  0           0  0  0
   -2.5958    0.8583    0.0000 C   0  0  0  0  0  0           0  0  0
   -2.3125    1.3833    0.0000 C   0  0  0  0  0  0           0  0  0
   -2.2833    0.3458    0.0000 C   0  0  0  0  0  0           0  0  0
    1.6417    0.9583    0.0000 Na  0  3  0  0  0  0           0  0  0
   -3.1958    0.8375    0.0000 O   0  0  0  0  0  0           0  0  0
   -1.3250   -2.8167    0.0000 C   0  0  0  0  0  0           0  0  0
   -2.3458   -1.6042    0.0000 C   0  0  0  0  0  0           0  0  0
    0.2417   -2.5375    0.0000 C   0  0  0  0  0  0           0  0  0
   -3.5083    1.3500    0.0000 C   0  0  0  0  0  0           0  0  0
  2  3  1  0     0  0
  3  1  2  0     0  0
  4  5  1  0     0  0
  5  2  2  0     0  0
  6  9  1  0     0  0
  7 14  1  0     0  0
  8  1  1  0     0  0
  9  4  2  0     0  0
 10  7  2  0     0  0
 11 15  1  0     0  0
 12  3  1  0     0  0
 13  2  1  0     0  0
 14 13  2  0     0  0
 15 21  2  0     0  0
 16 20  1  0     0  0
 17  1  1  0     0  0
 18 17  1  0     0  0
 19  8  1  0     0  0
 20 18  2  0     0  0
 21 18  1  0     0  0
 22 12  1  0     0  0
 23  8  2  0     0  0
 24 12  2  0     0  0
 25 19  1  0     0  0
 26 19  2  0     0  0
 27 11  1  0     0  0
 28 16  1  0     0  0
 29 15  1  0     0  0
 30 32  2  0     0  0
 31 25  2  0     0  0
 32 26  1  0     0  0
 34 30  1  0     0  0
 35 27  1  0     0  0
 36 28  1  0     0  0
 37 29  1  0     0  0
 38 34  1  0     0  0
 11 16  2  0     0  0
 31 30  1  0     0  0
  4  7  1  0     0  0
 10  6  1  0     0  0
M  CHG  2  22  -1  33   1
M  END