
          11280715362D 1   1.00000     0.00000     0

 34 37  0     1  0            999 V2000
    1.3417   -3.2542    0.0000 C   0  0  1  0  0  0           0  0  0
    1.1625   -2.4542    0.0000 C   0  0  2  0  0  0           0  0  0
    1.9292   -3.8417    0.0000 N   0  0  3  0  0  0           0  0  0
    0.6375   -3.6792    0.0000 C   0  0  0  0  0  0           0  0  0
    0.3417   -2.3792    0.0000 C   0  0  3  0  0  0           0  0  0
    6.1167   -3.2417    0.0000 C   0  0  0  0  0  0           0  0  0
    2.7750   -0.9000    0.0000 C   0  0  0  0  0  0           0  0  0
   -0.0833   -1.6667    0.0000 O   0  0  0  0  0  0           0  0  0
    0.0167   -3.1375    0.0000 C   0  0  0  0  0  0           0  0  0
    6.7792   -2.9750    0.0000 O   0  0  0  0  0  0           0  0  0
    3.5917   -0.8750    0.0000 C   0  0  0  0  0  0           0  0  0
    2.3750   -1.6167    0.0000 C   0  0  0  0  0  0           0  0  0
    2.3625   -0.1917    0.0000 C   0  0  0  0  0  0           0  0  0
    3.2542   -2.4042    0.0000 C   0  0  0  0  0  0           0  0  0
    4.1167   -2.4667    0.0000 C   0  0  0  0  0  0           0  0  0
    1.9542   -2.2375    0.0000 O   0  0  0  0  0  0           0  0  0
    0.3167   -0.9542    0.0000 C   0  0  0  0  0  0           0  0  0
    1.1417   -0.9417    0.0000 C   0  0  0  0  0  0           0  0  0
    6.0167   -3.9500    0.0000 O   0  0  0  0  0  0           0  0  0
    1.5542   -1.6375    0.0000 C   0  0  0  0  0  0           0  0  0
    1.5417   -0.2167    0.0000 C   0  0  0  0  0  0           0  0  0
    1.7125   -4.6292    0.0000 C   0  0  0  0  0  0           0  0  0
    2.7167   -3.6250    0.0000 C   0  0  0  0  0  0           0  0  0
    2.5417   -2.8167    0.0000 C   0  0  0  0  0  0           0  0  0
    5.5542   -2.8042    0.0000 C   0  0  0  0  0  0           0  0  0
    4.6167   -3.0542    0.0000 C   0  0  0  0  0  0           0  0  0
    3.9917   -0.1542    0.0000 C   0  0  0  0  0  0           0  0  0
    4.0000   -1.5792    0.0000 C   0  0  0  0  0  0           0  0  0
    3.3000   -4.2042    0.0000 C   0  0  0  0  0  0           0  0  0
    2.2917   -5.2125    0.0000 C   0  0  0  0  0  0           0  0  0
    4.8167   -1.5667    0.0000 C   0  0  0  0  0  0           0  0  0
    4.8042   -0.1417    0.0000 C   0  0  0  0  0  0           0  0  0
    5.2167   -0.8417    0.0000 C   0  0  0  0  0  0           0  0  0
    3.0875   -5.0000    0.0000 C   0  0  0  0  0  0           0  0  0
  2  1  1  0     0  0
  1  3  1  1     0  0
  4  1  1  0     0  0
  5  2  1  0     0  0
  6 25  1  0     0  0
  7 13  2  0     0  0
  8  5  1  0     0  0
  9  4  1  0     0  0
 10  6  2  0     0  0
 11  7  1  0     0  0
 12 20  2  0     0  0
 13 21  1  0     0  0
 14 24  1  0     0  0
 15 14  2  0     0  0
  2 16  1  6     0  0
 17  8  1  0     0  0
 18 17  1  0     0  0
 19  6  1  0     0  0
 20 18  1  0     0  0
 21 18  2  0     0  0
 22  3  1  0     0  0
 23  3  1  0     0  0
 24 16  1  0     0  0
 25 26  1  0     0  0
 26 15  1  0     0  0
 27 11  1  0     0  0
 28 11  2  0     0  0
 29 23  1  0     0  0
 30 22  1  0     0  0
 31 28  1  0     0  0
 32 27  2  0     0  0
 33 31  2  0     0  0
 34 29  1  0     0  0
  5  9  1  0     0  0
 30 34  1  0     0  0
 12  7  1  0     0  0
 33 32  1  0     0  0
M  END