
          11280715242D 1   1.00000     0.00000     0

 45 50  0     0  0            999 V2000
   10.7167   -1.8292    0.0000 N   0  3  0  0  0  0           0  0  0
    0.8417    0.0833    0.0000 C   0  0  0  0  0  0           0  0  0
   -0.5958    0.9000    0.0000 C   0  0  0  0  0  0           0  0  0
   -0.5833    0.0833    0.0000 C   0  0  0  0  0  0           0  0  0
    0.1292   -0.3292    0.0000 O   0  0  0  0  0  0           0  0  0
   10.1667   -1.2167    0.0000 C   0  0  0  0  0  0           0  0  0
    0.1167    1.3208    0.0000 C   0  0  0  0  0  0           0  0  0
   10.3042   -2.5417    0.0000 O   0  0  0  0  0  0           0  0  0
    0.8375    0.9083    0.0000 C   0  0  0  0  0  0           0  0  0
    9.5000   -2.3667    0.0000 N   0  0  0  0  0  0           0  0  0
    1.5542   -0.3250    0.0000 C   0  0  0  0  0  0           0  0  0
    9.4125   -1.5542    0.0000 C   0  0  0  0  0  0           0  0  0
    6.5542   -2.3750    0.0000 N   0  0  3  0  0  0           0  0  0
    1.5542   -1.1500    0.0000 C   0  0  0  0  0  0           0  0  0
    7.2667   -2.7875    0.0000 C   0  0  0  0  0  0           0  0  0
   11.5417   -1.7417    0.0000 O   0  5  0  0  0  0           0  0  0
    5.1292   -1.5500    0.0000 N   0  0  3  0  0  0           0  0  0
    8.7000   -1.1417    0.0000 C   0  0  0  0  0  0           0  0  0
   -1.2958   -0.3375    0.0000 C   0  0  0  0  0  0           0  0  0
    0.1125    2.1458    0.0000 O   0  0  0  0  0  0           0  0  0
    7.9792   -1.5500    0.0000 O   0  0  0  0  0  0           0  0  0
    7.9792   -2.3750    0.0000 C   0  0  0  0  0  0           0  0  0
    5.8417   -2.7792    0.0000 C   0  0  0  0  0  0           0  0  0
    6.5542   -1.5417    0.0000 C   0  0  0  0  0  0           0  0  0
    0.8417   -1.5667    0.0000 O   0  0  0  0  0  0           0  0  0
    2.2750   -1.5542    0.0000 N   0  0  0  0  0  0           0  0  0
    5.1292   -2.3750    0.0000 C   0  0  0  0  0  0           0  0  0
    5.8417   -1.1292    0.0000 C   0  0  0  0  0  0           0  0  0
   -1.3083    1.3083    0.0000 C   0  0  0  0  0  0           0  0  0
    2.2667    0.0875    0.0000 C   0  0  0  0  0  0           0  0  0
    1.5417    1.3208    0.0000 C   0  0  0  0  0  0           0  0  0
   10.3292   -0.4042    0.0000 C   0  0  0  0  0  0           0  0  0
    4.4167   -1.1375    0.0000 C   0  0  0  0  0  0           0  0  0
    3.7042   -1.5542    0.0000 C   0  0  0  0  0  0           0  0  0
    2.2542    0.9208    0.0000 C   0  0  0  0  0  0           0  0  0
    7.2667   -3.6125    0.0000 C   0  0  0  0  0  0           0  0  0
    2.9917   -1.1417    0.0000 C   0  0  0  0  0  0           0  0  0
   -1.2958   -1.1667    0.0000 C   0  0  0  0  0  0           0  0  0
   -2.0125    0.0750    0.0000 C   0  0  0  0  0  0           0  0  0
    8.6917   -2.7792    0.0000 C   0  0  0  0  0  0           0  0  0
    7.9792   -4.0250    0.0000 C   0  0  0  0  0  0           0  0  0
    8.7000   -3.6125    0.0000 C   0  0  0  0  0  0           0  0  0
   -2.7250   -0.3375    0.0000 C   0  0  0  0  0  0           0  0  0
   -2.0125   -1.5792    0.0000 C   0  0  0  0  0  0           0  0  0
   -2.7250   -1.1667    0.0000 C   0  0  0  0  0  0           0  0  0
  2 11  1  0     0  0
  3  7  1  0     0  0
  4  5  1  0     0  0
  5  2  1  0     0  0
  6  1  2  0     0  0
  7  9  1  0     0  0
  8  1  1  0     0  0
  9  2  2  0     0  0
 10  8  1  0     0  0
 11 14  1  0     0  0
 12  6  1  0     0  0
 13 15  1  0     0  0
 14 26  1  0     0  0
 15 22  1  0     0  0
 16  1  1  0     0  0
 17 28  1  0     0  0
 18 12  1  0     0  0
 19  4  1  0     0  0
 20  7  2  0     0  0
 21 18  1  0     0  0
 22 21  1  0     0  0
 23 13  1  0     0  0
 24 13  1  0     0  0
 25 14  2  0     0  0
 26 37  1  0     0  0
 27 23  1  0     0  0
 28 24  1  0     0  0
 29  3  1  0     0  0
 30 11  2  0     0  0
 31 35  2  0     0  0
 32  6  1  0     0  0
 33 17  1  0     0  0
 34 33  1  0     0  0
 35 30  1  0     0  0
 36 15  2  0     0  0
 37 34  1  0     0  0
 38 19  1  0     0  0
 39 19  2  0     0  0
 40 22  2  0     0  0
 41 42  2  0     0  0
 42 40  1  0     0  0
 43 39  1  0     0  0
 44 38  2  0     0  0
 45 43  2  0     0  0
 12 10  2  0     0  0
 36 41  1  0     0  0
 17 27  1  0     0  0
 31  9  1  0     0  0
  4  3  2  0     0  0
 44 45  1  0     0  0
M  CHG  2   1   1  16  -1
M  END