
  SciTegic12231509382D

 21 22  0  0  0  0            999 V2000
   13.5200  -13.9225    0.0000 N   0  3
   13.5313  -13.0998    0.0000 C   0  0
   12.8228  -12.6801    0.0000 C   0  0
   12.1037  -13.0845    0.0000 C   0  0
   12.0974  -13.9129    0.0000 C   0  0
   12.8064  -14.3289    0.0000 C   0  0
   11.3939  -12.6655    0.0000 C   0  0
   11.4017  -11.8414    0.0000 N   0  0
   10.6919  -11.4225    0.0000 O   0  0
   14.2296  -14.3415    0.0000 C   0  0
   14.9474  -13.9365    0.0000 C   0  0
   15.6571  -14.3556    0.0000 C   0  0
   16.3750  -13.9505    0.0000 N   0  3
   17.8147  -13.1419    0.0000 C   0  0
   17.8042  -13.9717    0.0000 C   0  0
   17.0824  -14.3781    0.0000 C   0  0
   16.3780  -13.1268    0.0000 C   0  0
   17.0998  -12.7205    0.0000 C   0  0
   18.5365  -12.7356    0.0000 C   0  0
   18.5435  -11.9077    0.0000 N   0  0
   19.2654  -11.5014    0.0000 O   0  0
  1  2  2  0
  2  3  1  0
  3  4  2  0
  4  5  1  0
  5  6  2  0
  6  1  1  0
  4  7  1  0
  7  8  2  0
  8  9  1  0
  1 10  1  0
 10 11  1  0
 11 12  1  0
 12 13  1  0
 14 15  1  0
 15 16  2  0
 16 13  1  0
 13 17  2  0
 17 18  1  0
 14 18  2  0
 14 19  1  0
 20 21  1  0
 19 20  2  0
M  CHG  2   1   1  13   1
M  END