
          11280715042D 1   1.00000     0.00000     0

 46 49  0     1  0            999 V2000
   -2.2333    0.4958    0.0000 C   0  0  0  0  0  0           0  0  0
   -2.2333   -0.3292    0.0000 N   0  0  3  0  0  0           0  0  0
    4.9042   -2.0125    0.0000 C   0  0  0  0  0  0           0  0  0
    2.7667   -1.5917    0.0000 C   0  0  0  0  0  0           0  0  0
    5.6250   -1.6042    0.0000 C   0  0  0  0  0  0           0  0  0
    4.1917   -1.6000    0.0000 N   0  0  3  0  0  0           0  0  0
   -2.9458    0.9125    0.0000 C   0  0  3  0  0  0           0  0  0
    2.0417   -2.8250    0.0000 C   0  0  0  0  0  0           0  0  0
    3.4792   -2.0042    0.0000 C   0  0  0  0  0  0           0  0  0
    2.0500   -2.0000    0.0000 C   0  0  1  0  0  0           0  0  0
   -1.5125   -0.7417    0.0000 C   0  0  3  0  0  0           0  0  0
   -0.0958   -1.5750    0.0000 N   0  0  3  0  0  0           0  0  0
    2.7542   -3.2292    0.0000 C   0  0  0  0  0  0           0  0  0
    2.7542   -4.0542    0.0000 C   0  0  0  0  0  0           0  0  0
   -2.2250    2.1500    0.0000 C   0  0  0  0  0  0           0  0  0
    2.7667   -0.7667    0.0000 N   0  0  0  0  0  0           0  0  0
    1.3375   -1.5792    0.0000 C   0  0  0  0  0  0           0  0  0
    5.6250   -0.7792    0.0000 C   0  0  0  0  0  0           0  0  0
    6.3292   -2.0250    0.0000 C   0  0  0  0  0  0           0  0  0
   -1.5125    0.9083    0.0000 O   0  0  0  0  0  0           0  0  0
   -2.9458    1.7375    0.0000 C   0  0  0  0  0  0           0  0  0
   -1.5208   -1.5667    0.0000 C   0  0  0  0  0  0           0  0  0
   -0.8000   -0.3292    0.0000 C   0  0  0  0  0  0           0  0  0
    2.0375   -4.4667    0.0000 C   0  0  0  0  0  0           0  0  0
    4.9042   -2.8375    0.0000 O   0  0  0  0  0  0           0  0  0
    7.0500   -1.6167    0.0000 C   0  0  0  0  0  0           0  0  0
    6.3375   -0.3750    0.0000 C   0  0  0  0  0  0           0  0  0
    7.0542   -0.7917    0.0000 C   0  0  0  0  0  0           0  0  0
    1.3292   -3.2292    0.0000 C   0  0  0  0  0  0           0  0  0
   -2.2250    2.9833    0.0000 O   0  0  0  0  0  0           0  0  0
    0.6167   -1.9917    0.0000 C   0  0  0  0  0  0           0  0  0
    1.3167   -4.0542    0.0000 C   0  0  0  0  0  0           0  0  0
   -0.8083   -1.9792    0.0000 C   0  0  0  0  0  0           0  0  0
   -0.0875   -0.7500    0.0000 C   0  0  0  0  0  0           0  0  0
   -1.5125    1.7375    0.0000 N   0  0  0  0  0  0           0  0  0
   -2.9458   -0.7375    0.0000 C   0  0  0  0  0  0           0  0  0
    3.4667   -4.4667    0.0000 Cl  0  0  0  0  0  0           0  0  0
    2.0292   -5.2917    0.0000 Cl  0  0  0  0  0  0           0  0  0
    6.3375    0.4500    0.0000 Cl  0  0  0  0  0  0           0  0  0
    7.7625   -2.0292    0.0000 Cl  0  0  0  0  0  0           0  0  0
    3.4875   -0.3542    0.0000 O   0  0  0  0  0  0           0  0  0
    4.2000   -0.7750    0.0000 C   0  0  0  0  0  0           0  0  0
   -3.6500    0.4958    0.0000 C   0  0  0  0  0  0           0  0  0
   -3.6500   -0.3292    0.0000 C   0  0  0  0  0  0           0  0  0
   -0.8000    1.3333    0.0000 C   0  0  0  0  0  0           0  0  0
    4.2042    0.0458    0.0000 C   0  0  0  0  0  0           0  0  0
  2  1  1  0     0  0
  3  6  1  0     0  0
  4 10  1  0     0  0
  5  3  1  0     0  0
  6  9  1  0     0  0
  7  1  1  0     0  0
 10  8  1  1     0  0
  9  4  1  0     0  0
 10 17  1  0     0  0
 11  2  1  0     0  0
 12 34  1  0     0  0
 13  8  1  0     0  0
 14 13  2  0     0  0
 15 21  1  0     0  0
 16  4  2  0     0  0
 17 31  1  0     0  0
 18  5  1  0     0  0
 19  5  2  0     0  0
 20  1  2  0     0  0
  7 21  1  0     0  0
 22 11  1  0     0  0
 23 11  1  0     0  0
 24 32  2  0     0  0
 25  3  2  0     0  0
 26 19  1  0     0  0
 27 18  2  0     0  0
 28 26  2  0     0  0
 29  8  2  0     0  0
 30 15  2  0     0  0
 31 12  1  0     0  0
 32 29  1  0     0  0
 33 22  1  0     0  0
 34 23  1  0     0  0
 35 15  1  0     0  0
 36  2  1  0     0  0
 37 14  1  0     0  0
 38 24  1  0     0  0
 39 27  1  0     0  0
 40 26  1  0     0  0
 41 16  1  0     0  0
 42  6  1  0     0  0
 43  7  1  0     0  0
 44 43  1  0     0  0
 45 35  1  0     0  0
 46 41  1  0     0  0
 36 44  1  0     0  0
 33 12  1  0     0  0
 14 24  1  0     0  0
 28 27  1  0     0  0
M  END