
  SciTegic12231509382D

 25 27  0  0  0  0            999 V2000
   -3.8484   -3.1791    0.0000 C   0  0
   -3.1444   -3.5998    0.0000 C   0  0
   -2.4301   -3.2005    0.0000 C   0  0
   -2.4187   -2.3806    0.0000 C   0  0
   -3.1274   -1.9618    0.0000 C   0  0
   -3.8388   -2.3635    0.0000 C   0  0
   -1.6986   -1.9765    0.0000 N   0  0
   -0.9895   -2.3981    0.0000 C   0  0
   -0.2717   -1.9975    0.0000 C   0  0
   -0.2575   -1.1715    0.0000 N   0  0
   -0.9673   -0.7478    0.0000 C   0  0
   -1.6914   -1.1502    0.0000 C   0  0
    0.4641   -0.7701    0.0000 C   0  0
    0.4771    0.0555    0.0000 C   0  0
    1.1987    0.4570    0.0000 N   0  0
    1.2117    1.2826    0.0000 C   0  0
    1.9333    1.6840    0.0000 C   0  0
    0.5033    1.7068    0.0000 O   0  0
    2.6781    1.3340    0.0000 C   0  0
    3.2403    1.9389    0.0000 C   0  0
    2.8387    2.6604    0.0000 C   0  0
    2.0285    2.5014    0.0000 O   0  0
   -1.7209   -3.6232    0.0000 O   0  0
   -1.7323   -4.4489    0.0000 C   0  0
   -4.5494   -1.9431    0.0000 Cl  0  0
  5  6  2  0
 10 13  1  0
  6  1  1  0
 13 14  1  0
  2  3  1  0
 14 15  1  0
  4  7  1  0
 15 16  1  0
  7  8  1  0
 16 17  1  0
 16 18  2  0
 17 19  2  0
  3  4  2  0
  1  2  2  0
  4  5  1  0
 19 20  1  0
 20 21  2  0
 21 22  1  0
 22 17  1  0
  7 12  1  0
  3 23  1  0
  8  9  1  0
 23 24  1  0
  9 10  1  0
  6 25  1  0
 10 11  1  0
 11 12  1  0
M  END