
          11280714512D 1   1.00000     0.00000     0

 30 33  0     1  0            999 V2000
    1.7250   -0.1917    0.0000 N   0  0  3  0  0  0           0  0  0
    1.2042   -0.4917    0.0000 C   0  0  2  0  0  0           0  0  0
    0.6875   -0.1917    0.0000 C   0  0  0  0  0  0           0  0  0
    0.6917    0.4083    0.0000 C   0  0  0  0  0  0           0  0  0
    1.2000   -1.0875    0.0000 C   0  0  0  0  0  0           0  0  0
    0.1750   -0.4917    0.0000 C   0  0  0  0  0  0           0  0  0
    1.7167   -1.3875    0.0000 C   0  0  1  0  0  0           0  0  0
    2.2417   -0.4917    0.0000 C   0  0  0  0  0  0           0  0  0
   -0.3458   -0.1917    0.0000 C   0  0  0  0  0  0           0  0  0
    2.2417   -1.0917    0.0000 C   0  0  1  0  0  0           0  0  0
    0.1750    0.7083    0.0000 C   0  0  0  0  0  0           0  0  0
   -0.3458    0.4083    0.0000 C   0  0  0  0  0  0           0  0  0
    1.7250    0.4083    0.0000 C   0  0  0  0  0  0           0  0  0
    2.5167   -3.4042    0.0000 C   0  0  0  0  0  0           0  0  0
    1.7125   -1.9792    0.0000 C   0  0  0  0  0  0           0  0  0
    1.2042    0.7083    0.0000 C   0  0  0  0  0  0           0  0  0
    2.5167   -2.8042    0.0000 O   0  0  0  0  0  0           0  0  0
    2.2250   -2.2875    0.0000 C   0  0  2  0  0  0           0  0  0
    1.9917   -3.7000    0.0000 O   0  0  0  0  0  0           0  0  0
    2.7542   -1.3917    0.0000 C   0  0  0  0  0  0           0  0  0
    2.7417   -1.9917    0.0000 C   0  0  0  0  0  0           0  0  0
   -0.8625   -0.4917    0.0000 O   0  0  0  0  0  0           0  0  0
   -0.8625    0.7083    0.0000 O   0  0  0  0  0  0           0  0  0
    3.0292   -3.7042    0.0000 C   0  0  0  0  0  0           0  0  0
   -1.3833   -0.1917    0.0000 C   0  0  0  0  0  0           0  0  0
   -1.3833    0.4083    0.0000 C   0  0  0  0  0  0           0  0  0
    0.6792   -0.7875    0.0000 H   0  0  0  0  0  0           0  0  0
    2.7542   -0.7917    0.0000 H   0  0  0  0  0  0           0  0  0
    1.9167   -2.8042    0.0000 H   0  0  0  0  0  0           0  0  0
    1.2000   -1.6792    0.0000 H   0  0  0  0  0  0           0  0  0
  2  1  1  0     0  0
  3  2  1  0     0  0
  4 16  1  0     0  0
  5  2  1  0     0  0
  6  3  1  0     0  0
  7 10  1  0     0  0
  8  1  1  0     0  0
  9  6  2  0     0  0
 10  8  1  0     0  0
 11  4  1  0     0  0
 12 11  2  0     0  0
 13  1  1  0     0  0
 14 17  1  0     0  0
 15  7  1  0     0  0
 16 13  1  0     0  0
 18 17  1  1     0  0
 18 21  1  0     0  0
 19 14  2  0     0  0
 20 10  1  0     0  0
 21 20  1  0     0  0
 22  9  1  0     0  0
 23 12  1  0     0  0
 24 14  1  0     0  0
 25 22  1  0     0  0
 26 23  1  0     0  0
  2 27  1  6     0  0
 10 28  1  6     0  0
 18 29  1  6     0  0
  7 30  1  6     0  0
  4  3  2  0     0  0
  7  5  1  0     0  0
  9 12  1  0     0  0
 18 15  1  0     0  0
M  END