
          11280714472D 1   1.00000     0.00000     0

 14 15  0     0  0            999 V2000
    5.1375   -3.1042    0.0000 N   0  0  3  0  0  0           0  0  0
    4.6167   -2.8042    0.0000 C   0  0  0  0  0  0           0  0  0
    6.1750   -3.7042    0.0000 N   0  0  3  0  0  0           0  0  0
    4.0917   -3.1042    0.0000 N   0  0  0  0  0  0           0  0  0
    4.6167   -2.2000    0.0000 C   0  0  0  0  0  0           0  0  0
    5.1375   -3.7042    0.0000 C   0  0  0  0  0  0           0  0  0
    5.6542   -2.8042    0.0000 C   0  0  0  0  0  0           0  0  0
    6.1750   -3.1042    0.0000 C   0  0  0  0  0  0           0  0  0
    5.6542   -4.0042    0.0000 C   0  0  0  0  0  0           0  0  0
    5.1292   -1.8917    0.0000 F   0  0  0  0  0  0           0  0  0
    6.6917   -4.0042    0.0000 C   0  0  0  0  0  0           0  0  0
    3.5792   -2.8042    0.0000 C   0  0  0  0  0  0           0  0  0
    4.0917   -1.9000    0.0000 C   0  0  0  0  0  0           0  0  0
    3.5792   -2.2000    0.0000 C   0  0  0  0  0  0           0  0  0
  2  1  1  0     0  0
  3  8  1  0     0  0
  4  2  1  0     0  0
  5  2  2  0     0  0
  6  1  1  0     0  0
  7  1  1  0     0  0
  8  7  1  0     0  0
  9  6  1  0     0  0
 10  5  1  0     0  0
 11  3  1  0     0  0
 12  4  2  0     0  0
 13  5  1  0     0  0
 14 13  2  0     0  0
  9  3  1  0     0  0
 14 12  1  0     0  0
M  END