
  SciTegic04091511462D

 52 56  0  0  1  0            999 V2000
    4.7827   -2.1774    0.0000 N   0  0
    9.0591   -5.0508    0.0000 C   0  0  1  0  0  0
    5.3130   -2.8094    0.0000 C   0  0
    8.2466   -5.1941    0.0000 C   0  0
    5.8773   -1.2589    0.0000 C   0  0
    5.0648   -1.4021    0.0000 C   0  0  2  0  0  0
    7.7163   -4.5621    0.0000 N   0  0
    5.5611   -4.2166    0.0000 N   0  0
    6.4076   -1.8909    0.0000 N   0  0
    6.3735   -4.0734    0.0000 C   0  0
    4.0177   -2.4864    0.0000 C   0  0
    5.0308   -3.5846    0.0000 C   0  0  2  0  0  0
    9.3412   -4.2756    0.0000 N   0  0
    9.0591   -5.8758    0.0000 C   0  0
    4.0753   -3.3094    0.0000 C   0  0
    6.9038   -4.7053    0.0000 C   0  0  2  0  0  0
    7.7503   -2.3796    0.0000 C   0  0
    8.5628   -2.2363    0.0000 N   0  0
    7.2200   -1.7476    0.0000 C   0  0  2  0  0  0
    8.8109   -3.6436    0.0000 C   0  0
    9.7736   -6.2883    0.0000 C   0  0
    6.1254   -2.6661    0.0000 O   0  0
    7.9644   -5.9693    0.0000 O   0  0
    6.1595   -0.4836    0.0000 O   0  0
    4.5345   -0.7702    0.0000 C   0  0
    6.6557   -3.2981    0.0000 O   0  0
    6.6217   -5.4806    0.0000 C   0  0
    7.4682   -3.1548    0.0000 O   0  0
    9.0931   -2.8683    0.0000 C   0  0
    7.9985   -3.7868    0.0000 O   0  0
    9.7736   -7.1133    0.0000 C   0  0
    7.5022   -0.9724    0.0000 C   0  0
    9.8715   -5.1941    0.0000 C   0  0
    5.8092   -5.6238    0.0000 C   0  0
    8.3446   -6.2883    0.0000 C   0  0
    8.5968   -0.0539    0.0000 S   0  0
   10.4880   -5.8758    0.0000 C   0  0
    8.3446   -7.1133    0.0000 C   0  0
    3.7221   -0.9134    0.0000 C   0  0
    8.3147   -0.8291    0.0000 C   0  0
    9.0591   -7.5258    0.0000 C   0  0
   10.4880   -7.5258    0.0000 C   0  0
    9.4093    0.0894    0.0000 C   0  0
    5.2789   -4.9919    0.0000 C   0  0
    5.5270   -6.3991    0.0000 C   0  0
    3.4399   -1.6887    0.0000 C   0  0
    3.1918   -0.2814    0.0000 C   0  0
   11.2025   -6.2883    0.0000 C   0  0
   11.2025   -7.1133    0.0000 C   0  0
    4.7146   -6.5423    0.0000 C   0  0
    4.4665   -5.1351    0.0000 C   0  0
    4.1843   -5.9104    0.0000 C   0  0
  2  4  1  0
  3  1  1  0
  4  7  1  0
  5  6  1  0
  6  1  1  0
  7 16  1  0
 12  8  1  6
  9  5  1  0
 10  8  1  0
 11  1  1  0
 12  3  1  0
 13 20  1  0
 14  2  1  0
 15 11  2  0
 16 10  1  0
 17 19  1  0
 18 17  1  0
 19  9  1  0
 20 29  1  0
 21 14  1  0
 22  3  2  0
 23  4  2  0
 24  5  2  0
  6 25  1  1
 26 10  2  0
 16 27  1  1
 28 17  2  0
 29 18  1  0
 30 20  2  0
 31 21  1  0
 19 32  1  1
  2 33  1  6
 34 27  1  0
 35 14  2  0
 36 40  1  0
 37 21  2  0
 38 35  1  0
 39 25  1  0
 40 32  1  0
 41 38  2  0
 42 31  2  0
 43 36  1  0
 44 34  1  0
 45 34  2  0
 46 39  1  0
 47 39  1  0
 48 37  1  0
 49 48  2  0
 50 45  1  0
 51 44  2  0
 52 50  2  0
 15 12  1  0
  2 13  1  0
 51 52  1  0
 41 31  1  0
 49 42  1  0
M  END