
  SciTegic01161211252D

 15 15  0  0  0  0            999 V2000
    6.7375   -7.2917    0.0000 N   0  0
    7.0375   -7.8167    0.0000 C   0  0
    6.1292   -6.2417    0.0000 C   0  0
    7.0375   -6.7667    0.0000 C   0  0
    5.8292   -5.7250    0.0000 C   0  0
    5.8292   -6.7667    0.0000 C   0  0
    6.7375   -6.2417    0.0000 C   0  0
    4.9292   -6.2500    0.0000 C   0  0
    5.2292   -5.7292    0.0000 C   0  0
    5.2292   -6.7667    0.0000 C   0  0
    7.0375   -5.7250    0.0000 O   0  0
    4.3292   -6.2500    0.0000 O   0  0
    7.6375   -7.8167    0.0000 C   0  0
    7.3292   -8.3375    0.0000 C   0  0
    6.7292   -8.3375    0.0000 C   0  0
  2  1  1  0
  3  7  1  0
  4  1  1  0
  5  3  2  0
  6  3  1  0
  7  4  1  0
  8 10  1  0
  9  5  1  0
 10  6  2  0
 11  7  1  0
 12  8  1  0
 13  2  1  0
  2 14  1  0
 15  2  1  0
  8  9  2  0
M  END