
  SciTegic02231516322D

 28 27  0  0  0  0            999 V2000
   25.3646   -9.6039    0.0000 C   0  0
   25.3635  -10.4313    0.0000 C   0  0
   26.0782  -10.8441    0.0000 C   0  0
   26.7947  -10.4308    0.0000 C   0  0
   26.7919   -9.6003    0.0000 C   0  0
   26.0765   -9.1912    0.0000 C   0  0
   27.5099  -10.8422    0.0000 O   0  0
   27.5047   -9.1851    0.0000 O   0  0
   28.2208   -9.5949    0.0000 C   0  0
   28.9337   -9.1797    0.0000 C   0  0
   29.6497   -9.5896    0.0000 C   0  0
   28.9306   -8.3547    0.0000 O   0  0
   28.2236  -10.4286    0.0000 C   0  0
   28.9388  -10.8400    0.0000 C   0  0
   28.9401  -11.6648    0.0000 O   0  0
   29.6528  -10.4144    0.0000 C   0  0
   30.3626   -9.1743    0.0000 N   0  0
   30.3728  -10.8171    0.0000 N   0  0
   30.3841  -11.6420    0.0000 C   0  0
   31.1042  -12.0446    0.0000 C   0  0
   29.6754  -12.0643    0.0000 C   0  0
   31.0786   -9.5841    0.0000 C   0  0
   31.7915   -9.1690    0.0000 C   0  0
   31.0817  -10.4091    0.0000 C   0  0
   24.6487  -10.8432    0.0000 C   0  0
   23.9346  -10.4301    0.0000 C   0  0
   24.6480  -11.6682    0.0000 C   0  0
   33.0079  -11.0818    0.0000 Cl  0  0
  1  2  2  0
  2  3  1  0
  3  4  2  0
  4  5  1  0
  5  6  2  0
  6  1  1  0
  4  7  1  0
  5  8  1  0
  8  9  1  0
  9 10  1  0
 10 11  1  0
 10 12  1  0
  7 13  1  0
 13 14  1  0
 14 16  1  0
 14 15  1  0
 11 17  1  0
 16 18  1  0
 18 19  1  0
 19 20  1  0
 19 21  1  0
 17 22  1  0
 22 23  1  0
 22 24  1  0
  2 25  1  0
 25 26  1  0
 25 27  1  0
M  END