
  SciTegic01311317052D

 29 32  0  0  0  0            999 V2000
    3.2736   -2.9375    0.0000 C   0  0
    3.2724   -3.7648    0.0000 C   0  0
    3.9872   -4.1777    0.0000 C   0  0
    4.7037   -3.7644    0.0000 C   0  0
    4.7008   -2.9338    0.0000 C   0  0
    3.9854   -2.5247    0.0000 C   0  0
    3.9889   -5.0005    0.0000 C   0  0
    3.2727   -5.4122    0.0000 C   0  0
    3.2722   -6.2365    0.0000 C   0  0
    3.9871   -6.6500    0.0000 C   0  0
    4.7040   -6.2332    0.0000 C   0  0
    4.7010   -5.4103    0.0000 C   0  0
    3.9825   -1.6959    0.0000 C   0  0
    4.6957   -1.2813    0.0000 O   0  0
    3.2668   -1.2856    0.0000 N   0  0
    2.5536   -1.7002    0.0000 C   0  0
    1.8379   -1.2898    0.0000 C   0  0
    1.1246   -1.7045    0.0000 C   0  0
    1.8354   -0.4648    0.0000 N   0  0
    2.5044    0.0218    0.0000 C   0  0
    2.2471    0.8056    0.0000 C   0  0
    1.4221    0.8032    0.0000 N   0  0
    1.1696    0.0178    0.0000 C   0  0
    0.4095   -1.2916    0.0000 C   0  0
   -0.3033   -1.7056    0.0000 C   0  0
   -0.3013   -2.5315    0.0000 C   0  0
    0.4195   -2.9416    0.0000 C   0  0
    1.1293   -2.5253    0.0000 C   0  0
    3.9880   -7.4750    0.0000 Cl  0  0
 13 14  2  0
 13 15  1  0
  6 13  1  0
  7  8  2  0
 15 16  1  0
 17 16  1  0
  8  9  1  0
 17 18  1  0
  4  5  1  0
 17 19  1  0
 19 20  1  0
  9 10  2  0
  2  3  1  0
 10 11  1  0
  5  6  2  0
 20 21  2  0
 21 22  1  0
 22 23  2  0
 23 19  1  0
 11 12  2  0
 18 24  2  0
 12  7  1  0
 24 25  1  0
  3  7  1  0
 25 26  2  0
  6  1  1  0
 26 27  1  0
  1  2  2  0
 27 28  2  0
 28 18  1  0
  3  4  2  0
 10 29  1  0
M  END