
          11280715362D 1   1.00000     0.00000     0

 38 41  0     1  0            999 V2000
    1.6792   -2.7042    0.0000 C   0  0  1  0  0  0           0  0  0
    1.5000   -1.9042    0.0000 C   0  0  2  0  0  0           0  0  0
    2.2667   -3.2917    0.0000 N   0  0  3  0  0  0           0  0  0
    6.3792   -0.2792    0.0000 C   0  0  0  0  0  0           0  0  0
    0.9750   -3.1292    0.0000 C   0  0  0  0  0  0           0  0  0
    0.6792   -1.8292    0.0000 C   0  0  3  0  0  0           0  0  0
    5.5542   -0.2917    0.0000 C   0  0  0  0  0  0           0  0  0
    6.4542   -2.6917    0.0000 C   0  0  0  0  0  0           0  0  0
    3.9292   -0.3250    0.0000 C   0  0  0  0  0  0           0  0  0
    3.1125   -0.3500    0.0000 C   0  0  0  0  0  0           0  0  0
    0.2542   -1.1167    0.0000 O   0  0  0  0  0  0           0  0  0
    6.8042   -0.9917    0.0000 O   0  0  0  0  0  0           0  0  0
    0.3542   -2.5875    0.0000 C   0  0  0  0  0  0           0  0  0
    7.1167   -2.4250    0.0000 O   0  0  0  0  0  0           0  0  0
    5.1417    0.4083    0.0000 C   0  0  0  0  0  0           0  0  0
    5.1542   -1.0167    0.0000 C   0  0  0  0  0  0           0  0  0
    4.3292    0.3875    0.0000 C   0  0  0  0  0  0           0  0  0
    4.3375   -1.0292    0.0000 C   0  0  0  0  0  0           0  0  0
    2.7000    0.3583    0.0000 C   0  0  0  0  0  0           0  0  0
    2.7125   -1.0667    0.0000 C   0  0  0  0  0  0           0  0  0
    3.5917   -1.8542    0.0000 C   0  0  0  0  0  0           0  0  0
    4.4542   -1.9167    0.0000 C   0  0  0  0  0  0           0  0  0
    6.7875    0.4333    0.0000 N   0  0  0  0  0  0           0  0  0
    2.2917   -1.6875    0.0000 O   0  0  0  0  0  0           0  0  0
    0.6542   -0.4042    0.0000 C   0  0  0  0  0  0           0  0  0
    1.4792   -0.3917    0.0000 C   0  0  0  0  0  0           0  0  0
    6.3542   -3.4000    0.0000 O   0  0  0  0  0  0           0  0  0
    1.8917   -1.0875    0.0000 C   0  0  0  0  0  0           0  0  0
    1.8792    0.3333    0.0000 C   0  0  0  0  0  0           0  0  0
    2.0000   -4.0667    0.0000 C   0  0  0  0  0  0           0  0  0
    3.0375   -3.0167    0.0000 C   0  0  0  0  0  0           0  0  0
    2.9667   -2.2167    0.0000 C   0  0  0  0  0  0           0  0  0
    5.8917   -2.2542    0.0000 C   0  0  0  0  0  0           0  0  0
    4.9542   -2.5042    0.0000 C   0  0  0  0  0  0           0  0  0
    2.4375   -4.7625    0.0000 C   0  0  0  0  0  0           0  0  0
    3.7375   -3.4542    0.0000 C   0  0  0  0  0  0           0  0  0
    3.2542   -4.8417    0.0000 C   0  0  0  0  0  0           0  0  0
    3.8375   -4.2667    0.0000 C   0  0  0  0  0  0           0  0  0
  2  1  1  0     0  0
  1  3  1  1     0  0
  4  7  1  0     0  0
  5  1  1  0     0  0
  6  2  1  0     0  0
  7 16  2  0     0  0
  8 33  1  0     0  0
  9 10  1  0     0  0
 10 19  2  0     0  0
 11  6  1  0     0  0
 12  4  2  0     0  0
 13  5  1  0     0  0
 14  8  2  0     0  0
 15 17  2  0     0  0
 16 18  1  0     0  0
 17  9  1  0     0  0
 18  9  2  0     0  0
 19 29  1  0     0  0
 20 28  2  0     0  0
 21 32  1  0     0  0
 22 21  2  0     0  0
 23  4  1  0     0  0
  2 24  1  6     0  0
 25 11  1  0     0  0
 26 25  1  0     0  0
 27  8  1  0     0  0
 28 26  1  0     0  0
 29 26  2  0     0  0
 30  3  1  0     0  0
 31  3  1  0     0  0
 32 24  1  0     0  0
 33 34  1  0     0  0
 34 22  1  0     0  0
 35 30  1  0     0  0
 36 31  1  0     0  0
 37 35  1  0     0  0
 38 36  1  0     0  0
  6 13  1  0     0  0
 38 37  1  0     0  0
 20 10  1  0     0  0
  7 15  1  0     0  0
M  END