
  SciTegic12151613572D

 35 38  0  0  0  0            999 V2000
   -2.3155    0.7475    0.0000 C   0  0
   -2.3155   -0.7475    0.0000 C   0  0
   -1.0028   -1.5132    0.0000 C   0  0
   -1.0028    1.5132    0.0000 C   0  0
    0.2917    0.7475    0.0000 C   0  0
    0.2917   -0.7475    0.0000 C   0  0
    1.7138   -1.2033    0.0000 N   0  0
    2.5889    0.0182    0.0000 C   0  0
    1.7138    1.2033    0.0000 N   0  0
    2.0907   -2.3426    0.0000 C   0  0
    2.0825    2.3453    0.0000 C   0  0
    3.7889    0.0269    0.0000 O   0  0
   -3.6187   -1.4919    0.0000 N   0  0
   -3.6267   -2.9927    0.0000 S   0  0
   -4.9300   -3.7369    0.0000 C   0  0
   -2.5905   -3.5979    0.0000 O   0  0
   -2.5844   -2.3981    0.0000 O   0  0
   -3.6187    1.4919    0.0000 O   0  0
   -3.6267    2.9927    0.0000 C   0  0
   -4.9282    3.7385    0.0000 C   0  0
   -4.9331    5.2385    0.0000 C   0  0
   -3.6365    5.9928    0.0000 C   0  0
   -2.3350    5.2470    0.0000 C   0  0
   -2.3301    3.7470    0.0000 C   0  0
   -4.9371   -5.2369    0.0000 C   0  0
   -6.2397   -5.9808    0.0000 C   0  0
   -7.5351   -5.2246    0.0000 C   0  0
   -7.5280   -3.7247    0.0000 C   0  0
   -6.2255   -2.9808    0.0000 C   0  0
   -3.6383    7.4936    0.0000 O   0  0
   -2.6002    8.0955    0.0000 C   0  0
   -8.8227   -2.9654    0.0000 O   0  0
   -8.8153   -1.7655    0.0000 C   0  0
   -8.8369   -5.9716    0.0000 O   0  0
   -8.8409   -7.1716    0.0000 C   0  0
  1  2  2  0
  2  3  1  0
  3  6  2  0
  5  4  2  0
  4  1  1  0
  5  6  1  0
  6  7  1  0
  7  8  1  0
  8  9  1  0
  9  5  1  0
  7 10  1  0
  9 11  1  0
  8 12  2  0
  2 13  1  0
 13 14  1  0
 14 15  1  0
 14 16  2  0
 14 17  2  0
  1 18  1  0
 18 19  1  0
 19 20  2  0
 20 21  1  0
 21 22  2  0
 22 23  1  0
 23 24  2  0
 24 19  1  0
 15 25  2  0
 25 26  1  0
 26 27  2  0
 27 28  1  0
 28 29  2  0
 29 15  1  0
 22 30  1  0
 30 31  1  0
 28 32  1  0
 32 33  1  0
 27 34  1  0
 34 35  1  0
M  END