
          11280715492D 1   1.00000     0.00000     0

 23 25  0     0  0            999 V2000
   12.4363  -18.7146    0.0000 C   0  0  0  0  0  0           0  0  0
   12.4351  -19.5396    0.0000 O   0  0  0  0  0  0           0  0  0
   13.1514  -18.3031    0.0000 N   0  0  0  0  0  0           0  0  0
   13.8653  -18.7167    0.0000 C   0  0  0  0  0  0           0  0  0
   13.8611  -19.5396    0.0000 C   0  0  0  0  0  0           0  0  0
   14.5741  -19.9531    0.0000 C   0  0  0  0  0  0           0  0  0
   15.2902  -19.5416    0.0000 C   0  0  0  0  0  0           0  0  0
   15.2887  -18.7123    0.0000 C   0  0  0  0  0  0           0  0  0
   14.5751  -18.3026    0.0000 C   0  0  0  0  0  0           0  0  0
    9.5833  -16.2417    0.0000 C   0  0  3  0  0  0           0  0  0
    9.5833  -17.0667    0.0000 C   0  0  0  0  0  0           0  0  0
   10.2954  -17.4750    0.0000 C   0  0  0  0  0  0           0  0  0
   11.0074  -17.0667    0.0000 N   0  0  3  0  0  0           0  0  0
   11.0074  -16.2417    0.0000 C   0  0  0  0  0  0           0  0  0
   10.2954  -15.8250    0.0000 C   0  0  0  0  0  0           0  0  0
    8.8677  -15.8313    0.0000 C   0  0  0  0  0  0           0  0  0
    8.1544  -16.2459    0.0000 C   0  0  0  0  0  0           0  0  0
    7.4000  -15.9126    0.0000 C   0  0  0  0  0  0           0  0  0
    6.8498  -16.5274    0.0000 N   0  0  0  0  0  0           0  0  0
    7.2644  -17.2407    0.0000 C   0  0  0  0  0  0           0  0  0
    8.0708  -17.0667    0.0000 N   0  0  0  0  0  0           0  0  0
   11.7212  -17.4802    0.0000 C   0  0  0  0  0  0           0  0  0
   11.7200  -18.3052    0.0000 C   0  0  0  0  0  0           0  0  0
  1  2  2  0     0  0
  6  7  1  0     0  0
  3  4  1  0     0  0
 10 15  1  0     0  0
 11 12  1  0     0  0
 12 13  1  0     0  0
 13 14  1  0     0  0
 14 15  1  0     0  0
  7  8  2  0     0  0
 10 16  1  0     0  0
 16 17  1  0     0  0
 17 18  2  0     0  0
  8  9  1  0     0  0
  9  4  2  0     0  0
 10 11  1  0     0  0
  4  5  1  0     0  0
 18 19  1  0     0  0
 19 20  1  0     0  0
 20 21  2  0     0  0
 21 17  1  0     0  0
  1  3  1  0     0  0
 13 22  1  0     0  0
  5  6  2  0     0  0
 22 23  1  0     0  0
 23  1  1  0     0  0
M  END