
  SciTegic01091215432D

 39 42  0  0  0  0            999 V2000
    1.5664   -0.0643    0.0000 S   0  0
    1.9776    0.6505    0.0000 O   0  0
    1.1529    0.6492    0.0000 O   0  0
   -3.4334    1.9909    0.0000 C   0  0
   -3.4345    1.1638    0.0000 C   0  0
   -2.7200    0.7512    0.0000 C   0  0
   -2.0039    1.1643    0.0000 C   0  0
   -2.0067    1.9945    0.0000 C   0  0
   -2.7218    2.4035    0.0000 C   0  0
   -4.1477    2.4030    0.0000 C   0  0
   -4.1452    3.2331    0.0000 C   0  0
   -4.8554    3.6452    0.0000 C   0  0
   -5.5719    3.2362    0.0000 C   0  0
   -5.5737    2.4105    0.0000 C   0  0
   -4.8589    1.9939    0.0000 C   0  0
   -1.2890    0.7531    0.0000 C   0  0
   -1.2878   -0.0716    0.0000 N   0  0
   -0.5729   -0.4827    0.0000 C   0  0
   -0.5716   -1.3074    0.0000 O   0  0
    0.1406   -0.0693    0.0000 C   0  0
    0.8555   -0.4805    0.0000 N   0  0
    0.8568   -1.3052    0.0000 C   0  0
    2.2838   -0.4783    0.0000 C   0  0
   -2.0013   -0.4850    0.0000 C   0  0
   -2.7130   -0.0700    0.0000 C   0  0
   -3.4260   -0.4827    0.0000 C   0  0
   -3.4252   -1.3083    0.0000 C   0  0
   -2.7053   -1.7193    0.0000 C   0  0
   -1.9953   -1.3042    0.0000 C   0  0
   -4.1402   -1.7234    0.0000 C   0  0
   -4.8556   -1.3131    0.0000 O   0  0
   -4.1378   -2.5481    0.0000 O   0  0
   -2.7011   -2.5440    0.0000 O   0  0
    2.2798   -1.3042    0.0000 C   0  0
    2.9964   -1.7181    0.0000 C   0  0
    3.7146   -1.3038    0.0000 C   0  0
    3.7118   -0.4712    0.0000 C   0  0
    2.9946   -0.0610    0.0000 C   0  0
    4.4294   -1.7150    0.0000 C   0  0
  4 10  1  0
 18 20  1  0
 10 11  1  0
 20 21  1  0
 21  1  1  0
  5  6  1  0
 21 22  1  0
  1 23  1  0
  6  7  2  0
 17 24  1  0
  2  1  2  0
 24 25  2  0
  7  8  1  0
 25 26  1  0
 10 15  1  0
 26 27  2  0
 11 12  1  0
 27 28  1  0
 12 13  1  0
 28 29  2  0
 29 24  1  0
 13 14  1  0
 14 15  1  0
  4  5  2  0
 30 31  1  0
 30 32  2  0
 27 30  1  0
  7 16  1  0
 28 33  1  0
  8  9  2  0
 23 34  2  0
 16 17  1  0
 34 35  1  0
  9  4  1  0
 35 36  2  0
 17 18  1  0
 36 37  1  0
  1  3  2  0
 37 38  2  0
 38 23  1  0
 18 19  2  0
 36 39  1  0
M  END