
  SciTegic02271514512D

 33 37  0  0  0  0            999 V2000
    7.6884   -3.0474    0.0000 N   0  0
    5.8672   -4.2141    0.0000 C   0  0
    6.6620   -4.0227    0.0000 N   0  0
    6.8936   -3.2388    0.0000 C   0  0
    6.3305   -2.6462    0.0000 C   0  0
    5.5357   -2.8376    0.0000 C   0  0
    5.3041   -3.6216    0.0000 N   0  0
    6.5621   -1.8622    0.0000 F   0  0
    4.8872   -6.0887    0.0000 C   0  0
    4.8652   -5.2715    0.0000 C   0  0
    4.1465   -4.8820    0.0000 C   0  0
    3.4498   -5.3096    0.0000 C   0  0
    3.4718   -6.1268    0.0000 C   0  0
    4.1905   -6.5163    0.0000 N   0  0
    5.6712   -6.3203    0.0000 N   0  0
    5.6356   -4.9981    0.0000 C   0  0
    6.1337   -5.6463    0.0000 C   0  0
    2.7312   -4.9201    0.0000 F   0  0
    8.2513   -3.6397    0.0000 C   0  0  1  0  0  0
    8.0164   -4.4240    0.0000 C   0  0
    8.5755   -5.0151    0.0000 C   0  0
    9.3713   -4.8278    0.0000 C   0  0
    9.6050   -4.0437    0.0000 C   0  0  2  0  0  0
    9.0429   -3.4470    0.0000 C   0  0
   10.4001   -3.8551    0.0000 N   0  0
   10.9610   -4.4494    0.0000 C   0  0
   10.7268   -5.2323    0.0000 O   0  0
   11.7527   -4.2617    0.0000 C   0  0
   12.3727   -4.7941    0.0000 N   0  0
   13.0706   -4.3690    0.0000 C   0  0
   12.8819   -3.5738    0.0000 N   0  0
   12.0675   -3.5076    0.0000 C   0  0
   12.3064   -5.6086    0.0000 C   0  0
  2  3  1  0
  3  4  2  0
  4  5  1  0
  5  6  2  0
  6  7  1  0
  2  7  2  0
  5  8  1  0
  9 10  1  0
 10 11  2  0
 11 12  1  0
 12 13  2  0
 13 14  1  0
  9 14  2  0
 16 17  2  0
 15 17  1  0
  9 15  1  0
 10 16  1  0
 12 18  1  0
  2 16  1  0
  1  4  1  0
 19  1  1  6
 19 20  1  0
 19 24  1  0
 20 21  1  0
 21 22  1  0
 22 23  1  0
 23 24  1  0
 23 25  1  6
 25 26  1  0
 26 27  2  0
 28 29  1  0
 29 30  1  0
 30 31  2  0
 31 32  1  0
 32 28  2  0
 26 28  1  0
 29 33  1  0
M  END