
  SciTegic04151115542D

 22 23  0  0  0  0            999 V2000
   19.0317   -6.3798    0.0000 C   0  0
   19.2712   -7.1671    0.0000 C   0  0
   20.0960   -7.1868    0.0000 N   0  0
   20.3696   -6.4085    0.0000 N   0  0
   19.7139   -5.9079    0.0000 C   0  0
   18.7721   -7.8240    0.0000 C   0  0
   19.7332   -5.0831    0.0000 C   0  0
   13.3152   -6.4000    0.0000 C   0  0
   13.3141   -7.2273    0.0000 C   0  0
   14.0289   -7.6402    0.0000 C   0  0
   14.7453   -7.2269    0.0000 C   0  0
   14.7425   -6.3963    0.0000 C   0  0
   14.0271   -5.9872    0.0000 C   0  0
   14.0287   -8.4652    0.0000 F   0  0
   12.5993   -7.6393    0.0000 Cl  0  0
   15.4554   -5.9811    0.0000 N   0  0
   16.1714   -6.3909    0.0000 C   0  0
   16.8843   -5.9758    0.0000 C   0  0
   16.1745   -7.2159    0.0000 O   0  0
   17.6003   -6.3856    0.0000 N   0  0
   16.8812   -5.1508    0.0000 O   0  0
   18.3133   -5.9704    0.0000 C   0  0
 11 12  1  0
  2  6  1  0
 12 13  2  0
 13  8  1  0
  1  2  2  0
 10 14  1  0
  5  7  1  0
  9 15  1  0
  2  3  1  0
 12 16  1  0
  3  4  1  0
 16 17  1  0
  8  9  2  0
 17 18  1  0
  4  5  2  0
 17 19  2  0
  9 10  1  0
 18 20  1  0
  5  1  1  0
 18 21  2  0
 10 11  2  0
 20 22  1  0
 22  1  1  0
M  END