
  SciTegic05221516342D

 14 15  0  0  0  0            999 V2000
   12.1258   -1.6715    0.0000 C   0  0
   12.1258   -2.4887    0.0000 C   0  0
   12.8311   -2.8932    0.0000 N   0  0
   12.8311   -1.2588    0.0000 C   0  0
   13.5364   -1.6715    0.0000 C   0  0
   13.5348   -2.4869    0.0000 C   0  0
   14.2390   -2.8942    0.0000 C   0  0
   14.9453   -2.4872    0.0000 C   0  0
   14.9429   -1.6687    0.0000 C   0  0
   14.2381   -1.2651    0.0000 C   0  0
   12.8323   -3.7104    0.0000 C   0  0
   13.5406   -4.1179    0.0000 C   0  0
   11.4187   -2.8983    0.0000 O   0  0
   15.6493   -1.2579    0.0000 N   0  0
  1  2  1  0
  1  4  1  0
  2  3  1  0
  3  6  1  0
  5  4  1  0
  5  6  2  0
  6  7  1  0
  7  8  2  0
  8  9  1  0
  9 10  2  0
 10  5  1  0
  3 11  1  0
 11 12  1  0
  2 13  2  0
  9 14  1  0
M  END