
          05080814042D 1   1.00000     0.00000     0

 28 30  0     0  0            999 V2000
    0.4194   -6.7125    0.0000 C   0  0  0  0  0  0           0  0  0
    0.4182   -7.5398    0.0000 C   0  0  0  0  0  0           0  0  0
    1.1331   -7.9527    0.0000 C   0  0  0  0  0  0           0  0  0
    1.8495   -7.5394    0.0000 C   0  0  0  0  0  0           0  0  0
    1.8466   -6.7088    0.0000 C   0  0  0  0  0  0           0  0  0
    1.1313   -6.2997    0.0000 C   0  0  0  0  0  0           0  0  0
    2.5646   -7.9507    0.0000 N   0  0  0  0  0  0           0  0  0
    2.5659   -8.7757    0.0000 C   0  0  0  0  0  0           0  0  0
    3.2810   -9.1871    0.0000 O   0  0  0  0  0  0           0  0  0
    1.8521   -9.1893    0.0000 C   0  0  0  0  0  0           0  0  0
    1.1401   -8.7741    0.0000 C   0  0  0  0  0  0           0  0  0
    0.4267   -9.1871    0.0000 C   0  0  0  0  0  0           0  0  0
    0.4276  -10.0130    0.0000 C   0  0  0  0  0  0           0  0  0
    1.1477  -10.4242    0.0000 C   0  0  0  0  0  0           0  0  0
    1.8581  -10.0089    0.0000 C   0  0  0  0  0  0           0  0  0
    1.1519  -11.2491    0.0000 S   0  0  3  0  0  0           0  0  0
    1.1458  -12.0708    0.0000 N   0  0  3  0  0  0           0  0  0
    1.9769  -11.2501    0.0000 O   0  0  0  0  0  0           0  0  0
    0.3269  -11.2515    0.0000 O   0  0  0  0  0  0           0  0  0
    0.4294  -12.4752    0.0000 C   0  0  0  0  0  0           0  0  0
    0.4214  -13.2932    0.0000 C   0  0  0  0  0  0           0  0  0
    1.1281  -13.7132    0.0000 O   0  0  0  0  0  0           0  0  0
    1.8445  -13.3089    0.0000 C   0  0  0  0  0  0           0  0  0
    1.8543  -12.4846    0.0000 C   0  0  0  0  0  0           0  0  0
    2.5596   -6.2936    0.0000 C   0  0  0  0  0  0           0  0  0
    3.2771   -6.7032    0.0000 O   0  0  0  0  0  0           0  0  0
    2.5580   -5.4684    0.0000 O   0  0  0  0  0  0           0  0  0
   -0.2952   -6.3001    0.0000 Br  0  0  0  0  0  0           0  0  0
 13 14  1  0     0  0
  4  7  1  0     0  0
 14 15  2  0     0  0
 15 10  1  0     0  0
  3  4  2  0     0  0
 14 16  1  0     0  0
  7  8  1  0     0  0
 16 17  1  0     0  0
 16 18  2  0     0  0
  8  9  2  0     0  0
 16 19  2  0     0  0
 17 20  1  0     0  0
  4  5  1  0     0  0
  8 10  1  0     0  0
  2  3  1  0     0  0
 10 11  2  0     0  0
  5  6  2  0     0  0
 17 24  1  0     0  0
 20 21  1  0     0  0
 21 22  1  0     0  0
 22 23  1  0     0  0
 23 24  1  0     0  0
 11 12  1  0     0  0
  5 25  1  0     0  0
  6  1  1  0     0  0
 12 13  2  0     0  0
 25 26  1  0     0  0
 25 27  2  0     0  0
  1  2  2  0     0  0
  1 28  1  0     0  0
M  END