
  SciTegic10041313202D

 38 42  0  0  0  0            999 V2000
    7.8917   -3.4167    0.0000 N   0  0
    8.3917   -2.7375    0.0000 C   0  0
    7.8917   -2.0667    0.0000 C   0  0
    7.1167   -2.3250    0.0000 C   0  0
    7.1167   -3.1625    0.0000 C   0  0
    9.2167   -2.6500    0.0000 C   0  0
    8.1167   -4.2167    0.0000 C   0  0
    1.0920   -5.2354    0.0000 C   0  0
    1.8125   -5.6375    0.0000 C   0  0
    6.4000   -3.5750    0.0000 C   0  0
   10.4542   -3.3667    0.0000 C   0  0
    6.4000   -1.9125    0.0000 C   0  0
    9.6292   -3.3667    0.0000 C   0  0
   -0.3744   -3.6083    0.0000 N   0  0
   10.8667   -2.6500    0.0000 O   0  0
    8.2417   -1.2917    0.0000 C   0  0
    5.6917   -2.3375    0.0000 C   0  0
    7.5292   -4.7917    0.0000 C   0  0
    0.3695   -4.8370    0.0000 C   0  0
    5.6917   -3.1625    0.0000 C   0  0
    6.0917   -5.6167    0.0000 C   0  0
   10.8625   -4.0792    0.0000 O   0  0
    4.9750   -1.9125    0.0000 F   0  0
    9.5625   -1.8917    0.0000 C   0  0
    7.5292   -5.6042    0.0000 C   0  0
    6.8125   -4.3792    0.0000 C   0  0
    6.1042   -4.7792    0.0000 C   0  0
    6.8125   -6.0167    0.0000 C   0  0
    5.3875   -6.0292    0.0000 O   0  0
    2.5292   -6.0375    0.0000 C   0  0
    0.3478   -4.0161    0.0000 C   0  0
    9.0750   -1.2167    0.0000 C   0  0
   -1.0773   -4.0438    0.0000 C   0  0
   -0.3314   -5.2688    0.0000 C   0  0
    4.6667   -5.6250    0.0000 C   0  0
    3.2375   -5.6250    0.0000 C   0  0
    3.9542   -6.0375    0.0000 C   0  0
   -1.0558   -4.8740    0.0000 C   0  0
  2  1  1  0
  3  2  2  0
  4  5  1  0
  5  1  1  0
  6  2  1  0
  7  1  1  0
  8  9  3  0
  9 30  1  0
 10  5  2  0
 11 13  1  0
 12  4  2  0
 13  6  1  0
 14 31  1  0
 15 11  2  0
 16  3  1  0
 17 20  2  0
 18  7  1  0
 19  8  1  0
 20 10  1  0
 21 27  2  0
 22 11  1  0
 23 17  1  0
 24  6  1  0
 25 18  1  0
 26 18  2  0
 27 26  1  0
 28 25  2  0
 29 21  1  0
 30 36  1  0
 31 19  2  0
 32 24  1  0
 33 38  1  0
 34 19  1  0
 35 29  1  0
 36 37  1  0
 37 35  1  0
 38 34  2  0
  4  3  1  0
 21 28  1  0
 17 12  1  0
 16 32  1  0
 33 14  2  0
M  END