
          11280715422D 1   1.00000     0.00000     0

 25 28  0     0  0            999 V2000
   -0.0583   -0.9667    0.0000 N   0  0  3  0  0  0           0  0  0
    0.3000   -0.4750    0.0000 C   0  0  0  0  0  0           0  0  0
   -0.0583    0.0208    0.0000 C   0  0  0  0  0  0           0  0  0
   -0.6333   -0.1750    0.0000 C   0  0  0  0  0  0           0  0  0
   -0.6333   -0.7792    0.0000 C   0  0  0  0  0  0           0  0  0
    0.9000   -0.4125    0.0000 C   0  0  3  0  0  0           0  0  0
    0.0917   -1.5417    0.0000 C   0  0  0  0  0  0           0  0  0
   -1.1583   -1.0792    0.0000 C   0  0  0  0  0  0           0  0  0
    1.7917   -0.9292    0.0000 C   0  0  0  0  0  0           0  0  0
   -1.1583    0.1250    0.0000 C   0  0  0  0  0  0           0  0  0
    1.1917   -0.9292    0.0000 C   0  0  0  0  0  0           0  0  0
   -0.8500   -2.8625    0.0000 N   0  0  0  0  0  0           0  0  0
    2.1000   -0.4125    0.0000 O   0  0  0  0  0  0           0  0  0
   -0.3333   -1.9667    0.0000 C   0  0  0  0  0  0           0  0  0
    0.1792    0.5708    0.0000 C   0  0  0  0  0  0           0  0  0
   -1.6708   -0.1750    0.0000 C   0  0  0  0  0  0           0  0  0
   -1.6708   -0.7792    0.0000 C   0  0  0  0  0  0           0  0  0
    2.0917   -1.4500    0.0000 O   0  0  0  0  0  0           0  0  0
   -2.1958    0.1250    0.0000 F   0  0  0  0  0  0           0  0  0
    1.1500    0.1458    0.0000 C   0  0  0  0  0  0           0  0  0
   -0.3333   -2.5625    0.0000 C   0  0  0  0  0  0           0  0  0
    0.7917    0.6333    0.0000 C   0  0  0  0  0  0           0  0  0
   -1.3708   -2.5625    0.0000 C   0  0  0  0  0  0           0  0  0
   -0.8583   -1.6667    0.0000 C   0  0  0  0  0  0           0  0  0
   -1.3708   -1.9625    0.0000 C   0  0  0  0  0  0           0  0  0
  2  1  1  0     0  0
  3  2  2  0     0  0
  4  5  1  0     0  0
  5  1  1  0     0  0
  6  2  1  0     0  0
  7  1  1  0     0  0
  8  5  2  0     0  0
  9 11  1  0     0  0
 10  4  2  0     0  0
 11  6  1  0     0  0
 12 21  2  0     0  0
 13  9  2  0     0  0
 14  7  1  0     0  0
 15  3  1  0     0  0
 16 17  2  0     0  0
 17  8  1  0     0  0
 18  9  1  0     0  0
 19 16  1  0     0  0
 20  6  1  0     0  0
 21 14  1  0     0  0
 22 20  1  0     0  0
 23 25  2  0     0  0
 24 14  2  0     0  0
 25 24  1  0     0  0
  4  3  1  0     0  0
 16 10  1  0     0  0
 15 22  1  0     0  0
 23 12  1  0     0  0
M  END