
  SciTegic10311217562D

 43 39  0  0  0  0            999 V2000
    0.3792   -1.3917    0.0000 C   0  0  2  0  0  0
    0.3792   -2.2167    0.0000 C   0  0  1  0  0  0
    1.0912   -2.6250    0.0000 C   0  0  2  0  0  0
    1.8032   -2.2167    0.0000 O   0  0
    1.8032   -1.3917    0.0000 C   0  0  1  0  0  0
    1.0912   -0.9750    0.0000 C   0  0  1  0  0  0
    2.5189   -0.9813    0.0000 C   0  0
   -0.3365   -0.9813    0.0000 O   0  0
   -0.3347   -2.6302    0.0000 O   0  0
    1.0912   -0.1500    0.0000 O   0  0
    1.0912   -3.4500    0.0000 O   0  0
    3.2321   -1.3959    0.0000 N   0  0
    1.8057   -3.8625    0.0000 C   0  0
    3.9478   -0.9855    0.0000 C   0  0
    4.6611   -1.4001    0.0000 C   0  0
    3.9502   -0.1605    0.0000 O   0  0
    5.3768   -0.9897    0.0000 N   0  0
    6.0900   -1.4043    0.0000 C   0  0
    6.8057   -0.9939    0.0000 O   0  0
    0.3767    0.2625    0.0000 S   0  0
   -0.3378   -0.1500    0.0000 O   0  5
   -0.0417    0.9791    0.0000 O   0  0
    0.7833    0.9791    0.0000 O   0  0
   -1.0498   -1.3959    0.0000 S   0  0
   -1.7654   -0.9855    0.0000 O   0  5
   -1.4667   -2.1084    0.0000 O   0  0
   -0.6417   -2.1084    0.0000 O   0  0
   -0.3335   -3.4552    0.0000 S   0  0
   -1.0474   -3.8688    0.0000 O   0  5
    0.4875   -3.4542    0.0000 O   0  0
    0.0708   -4.1667    0.0000 O   0  0
    5.3780   -0.1670    0.0000 C   0  0
    6.0876   -2.2293    0.0000 C   0  0
    6.0931    0.2444    0.0000 C   0  0
    6.8009   -2.6438    0.0000 O   0  0
    7.5165   -2.2334    0.0000 S   0  0
    8.2298   -2.6480    0.0000 O   0  5
    7.0958   -1.5167    0.0000 O   0  0
    7.9208   -1.5167    0.0000 O   0  0
   -2.6292    2.1292    0.0000 Na  0  3
    7.7708   -3.5542    0.0000 Na  0  3
   -2.6000   -1.1792    0.0000 Na  0  3
   -2.5375   -4.0542    0.0000 Na  0  3
  3  4  1  0
  3 11  1  6
 20 22  2  0
  4  5  1  0
 20 23  2  0
  7 12  1  0
  8 24  1  0
  5  6  1  0
 24 25  1  0
 11 13  1  0
 24 26  2  0
 24 27  2  0
 12 14  1  0
  5  7  1  1
  9 28  1  0
 14 15  1  0
 28 29  1  0
  1  2  1  0
 28 30  2  0
 14 16  2  0
 28 31  2  0
  1  8  1  1
 15 17  1  0
 17 32  1  0
  1  6  1  0
 18 33  1  0
 17 18  1  0
 32 34  1  0
  2  9  1  1
 33 35  1  0
 18 19  2  0
 35 36  1  0
  2  3  1  0
 36 37  1  0
 10 20  1  0
  6 10  1  6
 36 38  2  0
 20 21  1  0
 36 39  2  0
M  CHG  8  21  -1  25  -1  29  -1  37  -1  40   1  41   1  42   1  43   1
M  END