
  SciTegic02271515152D

 15 17  0  0  0  0            999 V2000
   10.4983   -4.4078    0.0000 C   0  0
   10.4971   -5.2274    0.0000 C   0  0
   11.2052   -5.6363    0.0000 C   0  0
   11.9148   -5.2269    0.0000 C   0  0
   11.9120   -4.4042    0.0000 C   0  0
   11.2034   -3.9990    0.0000 C   0  0
   12.6233   -5.6337    0.0000 N   0  0
   12.9630   -6.3743    0.0000 N   0  0
   13.7743   -6.2761    0.0000 C   0  0
   13.2175   -5.0769    0.0000 C   0  0
   13.9294   -5.4759    0.0000 C   0  0
   14.6288   -5.0590    0.0000 C   0  0
   14.6176   -4.2432    0.0000 N   0  0
   13.9010   -3.8461    0.0000 C   0  0
   13.2045   -4.2653    0.0000 N   0  0
  1  2  2  0
  2  3  1  0
  3  4  2  0
  4  5  1  0
  5  6  2  0
  6  1  1  0
  4  7  1  0
  7  8  1  0
  8  9  2  0
  9 11  1  0
 10  7  1  0
 10 11  2  0
 11 12  1  0
 12 13  2  0
 13 14  1  0
 14 15  2  0
 15 10  1  0
M  END