
          11280714522D 1   1.00000     0.00000     0

 20 21  0     0  0            999 V2000
    4.6792   -2.5292    0.0000 C   0  0  0  0  0  0           0  0  0
   -0.3125   -3.7792    0.0000 C   0  0  0  0  0  0           0  0  0
    0.4000   -3.3625    0.0000 C   0  0  0  0  0  0           0  0  0
    0.3917   -2.5375    0.0000 O   0  0  0  0  0  0           0  0  0
    4.6792   -3.3542    0.0000 O   0  0  0  0  0  0           0  0  0
    3.2542   -2.5250    0.0000 N   0  0  0  0  0  0           0  0  0
   -0.3125   -4.6042    0.0000 C   0  0  0  0  0  0           0  0  0
    5.4000   -2.1167    0.0000 N   0  0  0  0  0  0           0  0  0
    1.1042   -2.1250    0.0000 C   0  0  0  0  0  0           0  0  0
    1.8250   -2.5292    0.0000 C   0  0  3  0  0  0           0  0  0
    3.9667   -2.1167    0.0000 C   0  0  0  0  0  0           0  0  0
    1.8292   -3.3542    0.0000 O   0  0  0  0  0  0           0  0  0
    2.5375   -2.1167    0.0000 C   0  0  0  0  0  0           0  0  0
    1.1167   -4.6042    0.0000 C   0  0  0  0  0  0           0  0  0
    1.1167   -3.7750    0.0000 C   0  0  0  0  0  0           0  0  0
   -1.0250   -3.3667    0.0000 C   0  0  0  0  0  0           0  0  0
    0.4000   -5.0167    0.0000 C   0  0  0  0  0  0           0  0  0
   -1.0250   -5.0167    0.0000 C   0  0  0  0  0  0           0  0  0
   -1.7375   -3.7792    0.0000 C   0  0  0  0  0  0           0  0  0
   -1.7375   -4.6042    0.0000 C   0  0  0  0  0  0           0  0  0
  2  3  1  0     0  0
  3  4  1  0     0  0
  4  9  1  0     0  0
  5  1  2  0     0  0
  6 11  1  0     0  0
  7  2  1  0     0  0
  8  1  1  0     0  0
  9 10  1  0     0  0
 10 13  1  0     0  0
 11  1  1  0     0  0
 12 10  1  0     0  0
 13  6  1  0     0  0
 14 15  1  0     0  0
 15  3  2  0     0  0
 16  2  2  0     0  0
 17 14  2  0     0  0
 18  7  2  0     0  0
 19 16  1  0     0  0
 20 19  2  0     0  0
  7 17  1  0     0  0
 20 18  1  0     0  0
M  END