
  CDK    12/20/10,15:20

 23 23  0  0  0  0  0  0  0  0999 V2000
    1.6444   -1.8166    0.0000 C   0  0  0  0  0  0  0  0  0  0  0  0
    1.6432   -2.6440    0.0000 C   0  0  0  0  0  0  0  0  0  0  0  0
    2.3581   -3.0569    0.0000 C   0  0  0  0  0  0  0  0  0  0  0  0
    3.0745   -2.6435    0.0000 C   0  0  0  0  0  0  0  0  0  0  0  0
    3.0716   -1.8130    0.0000 C   0  0  0  0  0  0  0  0  0  0  0  0
    2.3563   -1.4039    0.0000 C   0  0  0  0  0  0  0  0  0  0  0  0
    0.9284   -3.0559    0.0000 O   0  0  0  0  0  0  0  0  0  0  0  0
    3.7896   -3.0549    0.0000 O   0  0  0  0  0  0  0  0  0  0  0  0
    0.9298   -1.4043    0.0000 C   0  0  0  0  0  0  0  0  0  0  0  0
    0.9296   -0.5793    0.0000 O   0  0  0  0  0  0  0  0  0  0  0  0
    0.2155   -1.8170    0.0000 C   0  0  0  0  0  0  0  0  0  0  0  0
   -0.4991   -1.4046    0.0000 C   0  0  0  0  0  0  0  0  0  0  0  0
   -1.2135   -1.8173    0.0000 C   0  0  0  0  0  0  0  0  0  0  0  0
   -1.9281   -1.4050    0.0000 C   0  0  0  0  0  0  0  0  0  0  0  0
   -2.6424   -1.8177    0.0000 C   0  0  0  0  0  0  0  0  0  0  0  0
   -3.3570   -1.4053    0.0000 C   0  0  0  0  0  0  0  0  0  0  0  0
   -4.0714   -1.8180    0.0000 C   0  0  0  0  0  0  0  0  0  0  0  0
    2.3538   -0.5789    0.0000 C   0  0  0  0  0  0  0  0  0  0  0  0
    3.0670   -0.1642    0.0000 C   0  0  0  0  0  0  0  0  0  0  0  0
    3.7827   -0.5746    0.0000 O   0  0  0  0  0  0  0  0  0  0  0  0
    3.0646    0.6608    0.0000 O   0  0  0  0  0  0  0  0  0  0  0  0
    4.4960   -0.1600    0.0000 C   0  0  0  0  0  0  0  0  0  0  0  0
    5.2117   -0.5703    0.0000 C   0  0  0  0  0  0  0  0  0  0  0  0
  5  6  2  0  0  0  0 
 11 12  1  0  0  0  0 
  6  1  1  0  0  0  0 
 12 13  1  0  0  0  0 
  1  2  2  0  0  0  0 
 13 14  1  0  0  0  0 
  2  7  1  0  0  0  0 
 14 15  1  0  0  0  0 
  3  4  2  0  0  0  0 
 15 16  1  0  0  0  0 
  4  8  1  0  0  0  0 
 16 17  1  0  0  0  0 
  6 18  1  0  0  0  0 
  1  9  1  0  0  0  0 
 18 19  1  0  0  0  0 
  4  5  1  0  0  0  0 
 19 20  1  0  0  0  0 
  9 10  2  0  0  0  0 
 19 21  2  0  0  0  0 
  2  3  1  0  0  0  0 
 20 22  1  0  0  0  0 
  9 11  1  0  0  0  0 
 22 23  1  0  0  0  0 
M  END