
          11280715072D 1   1.00000     0.00000     0

 26 28  0     0  0            999 V2000
    0.5917   -1.8792    0.0000 N   0  0  0  0  0  0           0  0  0
    0.0750   -2.1875    0.0000 C   0  0  3  0  0  0           0  0  0
    1.1167   -2.1792    0.0000 C   0  0  0  0  0  0           0  0  0
    1.1167   -2.7792    0.0000 O   0  0  0  0  0  0           0  0  0
   -0.4458   -1.8875    0.0000 C   0  0  0  0  0  0           0  0  0
    0.0750   -2.7875    0.0000 C   0  0  3  0  0  0           0  0  0
    3.1917   -2.1792    0.0000 N   0  0  0  0  0  0           0  0  0
    3.7125   -1.8792    0.0000 C   0  0  3  0  0  0           0  0  0
    1.6292   -1.8792    0.0000 C   0  0  0  0  0  0           0  0  0
   -0.9625   -2.1875    0.0000 C   0  0  0  0  0  0           0  0  0
   -0.4458   -1.2875    0.0000 C   0  0  0  0  0  0           0  0  0
    2.6750   -1.8792    0.0000 C   0  0  0  0  0  0           0  0  0
   -0.4375   -3.0875    0.0000 C   0  0  0  0  0  0           0  0  0
    0.5917   -3.0875    0.0000 C   0  0  0  0  0  0           0  0  0
    4.2292   -2.1792    0.0000 C   0  0  0  0  0  0           0  0  0
    3.7042   -1.2792    0.0000 C   0  0  0  0  0  0           0  0  0
    2.1542   -2.1792    0.0000 C   0  0  0  0  0  0           0  0  0
   -0.9625   -0.9875    0.0000 C   0  0  0  0  0  0           0  0  0
   -1.4833   -1.8917    0.0000 C   0  0  0  0  0  0           0  0  0
   -0.4375   -3.6875    0.0000 C   0  0  0  0  0  0           0  0  0
    0.5917   -3.6875    0.0000 C   0  0  0  0  0  0           0  0  0
    4.2292   -0.9792    0.0000 C   0  0  0  0  0  0           0  0  0
    4.7417   -1.8792    0.0000 C   0  0  0  0  0  0           0  0  0
    4.7500   -1.2792    0.0000 C   0  0  0  0  0  0           0  0  0
   -1.4833   -1.2875    0.0000 C   0  0  0  0  0  0           0  0  0
    0.0750   -3.9875    0.0000 C   0  0  0  0  0  0           0  0  0
  2  1  1  0     0  0
  3  1  1  0     0  0
  4  3  2  0     0  0
  5  2  1  0     0  0
  6  2  1  0     0  0
  7 12  1  0     0  0
  8  7  1  0     0  0
  9  3  1  0     0  0
 10  5  1  0     0  0
 11  5  2  0     0  0
 12 17  1  0     0  0
 13  6  1  0     0  0
 14  6  1  0     0  0
 15  8  1  0     0  0
 16  8  1  0     0  0
 17  9  1  0     0  0
 18 11  1  0     0  0
 19 10  2  0     0  0
 20 13  1  0     0  0
 21 14  1  0     0  0
 22 16  1  0     0  0
 23 15  1  0     0  0
 24 22  1  0     0  0
 25 18  2  0     0  0
 26 21  1  0     0  0
 26 20  1  0     0  0
 19 25  1  0     0  0
 24 23  1  0     0  0
M  END