
          11280714492D 1   1.00000     0.00000     0

 26 28  0     0  0            999 V2000
    4.7667   -9.9042    0.0000 N   0  0  3  0  0  0           0  0  0
    9.2667   -9.3792    0.0000 C   0  0  0  0  0  0           0  0  0
    8.6667   -9.3792    0.0000 C   0  0  0  0  0  0           0  0  0
    4.1667   -9.9042    0.0000 C   0  0  0  0  0  0           0  0  0
    9.6167   -8.8917    0.0000 S   0  0  0  0  0  0           0  0  0
    5.9667   -9.9000    0.0000 N   0  0  3  0  0  0           0  0  0
    9.6167   -9.8667    0.0000 C   0  0  0  0  0  0           0  0  0
    5.0667  -10.4250    0.0000 C   0  0  0  0  0  0           0  0  0
    5.0625   -9.3792    0.0000 C   0  0  0  0  0  0           0  0  0
   10.1792   -9.0792    0.0000 C   0  0  0  0  0  0           0  0  0
    8.3667   -8.8542    0.0000 O   0  0  0  0  0  0           0  0  0
    3.8750  -10.4292    0.0000 C   0  0  0  0  0  0           0  0  0
   10.1792   -9.6792    0.0000 C   0  0  0  0  0  0           0  0  0
    8.3667   -9.9000    0.0000 N   0  0  0  0  0  0           0  0  0
    5.6667   -9.3792    0.0000 C   0  0  0  0  0  0           0  0  0
    5.6667  -10.4167    0.0000 C   0  0  0  0  0  0           0  0  0
    4.1792  -10.9417    0.0000 O   0  0  0  0  0  0           0  0  0
    6.5667   -9.9000    0.0000 C   0  0  0  0  0  0           0  0  0
    3.8667   -9.3875    0.0000 C   0  0  0  0  0  0           0  0  0
    3.2750  -10.4292    0.0000 C   0  0  0  0  0  0           0  0  0
    7.7667   -9.9000    0.0000 C   0  0  0  0  0  0           0  0  0
    4.7792  -10.9375    0.0000 C   0  0  0  0  0  0           0  0  0
    6.8667  -10.4167    0.0000 C   0  0  0  0  0  0           0  0  0
    7.4667  -10.4167    0.0000 C   0  0  0  0  0  0           0  0  0
    3.2667   -9.3917    0.0000 C   0  0  0  0  0  0           0  0  0
    2.9667   -9.9125    0.0000 C   0  0  0  0  0  0           0  0  0
  2  3  1  0     0  0
  3 14  1  0     0  0
  4  1  1  0     0  0
  5  2  1  0     0  0
  6 15  1  0     0  0
  7  2  2  0     0  0
  8  1  1  0     0  0
  9  1  1  0     0  0
 10  5  1  0     0  0
 11  3  2  0     0  0
 12  4  1  0     0  0
 13  7  1  0     0  0
 14 21  1  0     0  0
 15  9  1  0     0  0
 16  8  1  0     0  0
 17 12  1  0     0  0
 18  6  1  0     0  0
 19  4  2  0     0  0
 20 12  2  0     0  0
 21 24  1  0     0  0
 22 17  1  0     0  0
 23 18  1  0     0  0
 24 23  1  0     0  0
 25 19  1  0     0  0
 26 25  2  0     0  0
 16  6  1  0     0  0
 20 26  1  0     0  0
 13 10  2  0     0  0
M  END