
  SciTegic12191611322D

 26 27  0  0  0  0            999 V2000
    2.5984   -2.7004    0.0000 O   0  0
    2.5988   -1.5004    0.0000 S   0  0
    3.6377   -2.1009    0.0000 O   0  0
    7.8513   -1.3707    0.0000 N   0  0
    6.4990   -0.7516    0.0000 N   0  0
    6.6348    0.7294    0.0000 C   0  0
    8.1015    1.0434    0.0000 C   0  0
    8.8534   -0.2546    0.0000 C   0  0
    5.1988   -1.5012    0.0000 C   0  0
    3.8990   -0.7508    0.0000 N   0  0
    1.2990   -0.7500    0.0000 C   0  0
    1.2990    0.7500    0.0000 C   0  0
    0.0000    1.5000    0.0000 C   0  0
   -1.2990    0.7500    0.0000 C   0  0
   -1.2990   -0.7500    0.0000 C   0  0
    0.0000   -1.5000    0.0000 C   0  0
    5.1952   -3.0021    0.0000 N   0  0
    3.8942   -3.7502    0.0000 C   0  0
    3.8913   -4.9502    0.0000 C   0  0
    0.0000    2.7000    0.0000 Cl  0  0
    8.7118    2.4117    0.0000 C   0  0
    9.9053    2.5371    0.0000 C   0  0
   -2.6003    1.4977    0.0000 N   0  0
   -3.8990    0.7455    0.0000 C   0  0
   -3.8969   -0.4545    0.0000 C   0  0
   -4.9395    1.3433    0.0000 O   0  0
  2  1  2  0
  3  2  2  0
  4  5  1  0
  5  6  1  0
  6  7  1  0
  7  8  1  0
  8  4  2  0
  5  9  1  0
  9 10  2  0
 10  2  1  0
  2 11  1  0
 11 12  2  0
 12 13  1  0
 13 14  2  0
 14 15  1  0
 15 16  2  0
 16 11  1  0
  9 17  1  0
 17 18  1  0
 18 19  1  0
 13 20  1  0
  7 21  1  0
 21 22  1  0
 14 23  1  0
 23 24  1  0
 24 25  1  0
 24 26  2  0
M  END