
          11280715332D 1   1.00000     0.00000     0

 48 53  0     1  0            999 V2000
    4.8417   -1.5875    0.0000 C   0  0  1  0  0  0           0  0  0
    6.9875   -1.1750    0.0000 C   0  0  1  0  0  0           0  0  0
    4.1292   -1.1750    0.0000 C   0  0  0  0  0  0           0  0  0
    7.7000   -1.5875    0.0000 C   0  0  0  0  0  0           0  0  0
    3.4167   -1.5875    0.0000 N   0  0  0  0  0  0           0  0  0
    8.4167   -1.1750    0.0000 N   0  0  0  0  0  0           0  0  0
    6.2667   -1.5875    0.0000 C   0  0  1  0  0  0           0  0  0
    5.5542   -1.1750    0.0000 C   0  0  1  0  0  0           0  0  0
    9.1292   -1.5792    0.0000 C   0  0  3  0  0  0           0  0  0
    2.7000   -1.1750    0.0000 C   0  0  3  0  0  0           0  0  0
    2.4417   -1.9542    0.0000 C   0  0  0  0  0  0           0  0  0
    9.1750   -2.4042    0.0000 C   0  0  0  0  0  0           0  0  0
    9.9667   -2.6167    0.0000 C   0  0  0  0  0  0           0  0  0
    1.6167   -1.9667    0.0000 C   0  0  0  0  0  0           0  0  0
    9.9000   -1.2917    0.0000 C   0  0  1  0  0  0           0  0  0
    2.0292   -0.6917    0.0000 C   0  0  2  0  0  0           0  0  0
    6.9875   -0.3500    0.0000 O   0  0  0  0  0  0           0  0  0
    4.8417   -2.4125    0.0000 O   0  0  0  0  0  0           0  0  0
   10.4167   -1.9292    0.0000 C   0  0  0  0  0  0           0  0  0
    1.3625   -1.1792    0.0000 C   0  0  0  0  0  0           0  0  0
    4.1292   -0.3500    0.0000 O   0  0  0  0  0  0           0  0  0
    7.7000   -2.4125    0.0000 O   0  0  0  0  0  0           0  0  0
    5.5542   -0.3500    0.0000 O   0  0  0  0  0  0           0  0  0
    6.2667   -2.4125    0.0000 O   0  0  0  0  0  0           0  0  0
    7.7667    0.0833    0.0000 C   0  0  0  0  0  0           0  0  0
    4.1292   -2.8292    0.0000 C   0  0  0  0  0  0           0  0  0
   10.1167   -0.4917    0.0000 O   0  0  0  0  0  0           0  0  0
    2.0542    0.1333    0.0000 O   0  0  0  0  0  0           0  0  0
    4.1292   -3.6542    0.0000 C   0  0  0  0  0  0           0  0  0
    7.7417    0.9083    0.0000 C   0  0  0  0  0  0           0  0  0
    8.5792   -2.9792    0.0000 C   0  0  0  0  0  0           0  0  0
    2.8667   -2.6667    0.0000 C   0  0  0  0  0  0           0  0  0
   10.1750   -3.4167    0.0000 C   0  0  0  0  0  0           0  0  0
    1.2167   -2.6792    0.0000 C   0  0  0  0  0  0           0  0  0
    8.4417    1.3500    0.0000 C   0  0  0  0  0  0           0  0  0
    3.4125   -4.0667    0.0000 C   0  0  0  0  0  0           0  0  0
    4.8417   -4.0625    0.0000 C   0  0  0  0  0  0           0  0  0
    7.0042    1.3000    0.0000 C   0  0  0  0  0  0           0  0  0
    8.7875   -3.7792    0.0000 C   0  0  0  0  0  0           0  0  0
    2.4625   -3.3875    0.0000 C   0  0  0  0  0  0           0  0  0
    9.5792   -4.0042    0.0000 C   0  0  0  0  0  0           0  0  0
    1.6375   -3.3917    0.0000 C   0  0  0  0  0  0           0  0  0
    3.4125   -4.8917    0.0000 C   0  0  0  0  0  0           0  0  0
    4.8417   -4.8875    0.0000 C   0  0  0  0  0  0           0  0  0
    8.4125    2.1750    0.0000 C   0  0  0  0  0  0           0  0  0
    6.9792    2.1250    0.0000 C   0  0  0  0  0  0           0  0  0
    4.1292   -5.3042    0.0000 C   0  0  0  0  0  0           0  0  0
    7.6792    2.5583    0.0000 C   0  0  0  0  0  0           0  0  0
  2  7  1  0     0  0
  3  1  1  0     0  0
  4  2  1  0     0  0
  5  3  1  0     0  0
  6  4  1  0     0  0
  7  8  1  0     0  0
  8  1  1  0     0  0
  6  9  1  0     0  0
  5 10  1  0     0  0
 11 10  1  0     0  0
 12  9  1  0     0  0
 13 12  1  0     0  0
 14 11  1  0     0  0
 15  9  1  0     0  0
 16 10  1  0     0  0
  2 17  1  1     0  0
  1 18  1  1     0  0
 19 15  1  0     0  0
 20 16  1  0     0  0
 21  3  2  0     0  0
 22  4  2  0     0  0
  8 23  1  6     0  0
  7 24  1  6     0  0
 25 17  1  0     0  0
 26 18  1  0     0  0
 15 27  1  6     0  0
 16 28  1  6     0  0
 29 26  1  0     0  0
 30 25  1  0     0  0
 31 12  2  0     0  0
 32 11  2  0     0  0
 33 13  2  0     0  0
 34 14  2  0     0  0
 35 30  2  0     0  0
 36 29  2  0     0  0
 37 29  1  0     0  0
 38 30  1  0     0  0
 39 31  1  0     0  0
 40 32  1  0     0  0
 41 39  2  0     0  0
 42 40  2  0     0  0
 43 36  1  0     0  0
 44 37  2  0     0  0
 45 35  1  0     0  0
 46 38  2  0     0  0
 47 44  1  0     0  0
 48 46  1  0     0  0
 14 20  1  0     0  0
 47 43  2  0     0  0
 42 34  1  0     0  0
 19 13  1  0     0  0
 45 48  2  0     0  0
 33 41  1  0     0  0
M  END