
  SciTegic10041218072D

 22 25  0  0  1  0            999 V2000
    8.3732   -5.8899    0.0000 C   0  0  1  0  0  0
    9.0856   -6.3029    0.0000 C   0  0  2  0  0  0
    7.6603   -6.3103    0.0000 C   0  0
    9.7985   -5.8991    0.0000 C   0  0  1  0  0  0
    7.6640   -7.1355    0.0000 C   0  0
    9.7990   -5.0739    0.0000 C   0  0  2  0  0  0
    8.3654   -5.0730    0.0000 C   0  0
    9.0893   -7.1281    0.0000 C   0  0
    6.9479   -5.8890    0.0000 C   0  0
    9.0866   -4.6609    0.0000 C   0  0
    8.3722   -7.5402    0.0000 C   0  0
    6.9469   -7.5393    0.0000 C   0  0
    6.2387   -7.1346    0.0000 C   0  0
    6.2392   -6.3094    0.0000 C   0  0
   10.5785   -4.8160    0.0000 C   0  0
   10.5859   -6.1496    0.0000 C   0  0
    5.5133   -7.5467    0.0000 O   0  0
    9.7912   -4.2487    0.0000 C   0  0
   11.0657   -5.4790    0.0000 C   0  0
    8.3667   -6.7167    0.0000 H   0  0
    9.0792   -5.4792    0.0000 H   0  0
    9.7917   -6.7208    0.0000 H   0  0
  2  1  1  0
  3  1  1  0
  4  2  1  0
  5  3  2  0
  6 10  1  0
  7  1  1  0
  8  2  1  0
  9  3  1  0
 10  7  1  0
 11  5  1  0
 12  5  1  0
 13 14  1  0
 14  9  2  0
 15  6  1  0
 16  4  1  0
 17 13  1  0
  6 18  1  1
 19 16  1  0
  6  4  1  0
 11  8  1  0
 13 12  2  0
 15 19  1  0
  1 20  1  6
  2 21  1  1
  4 22  1  6
M  END