
  SciTegic01161211252D

 15 14  0  0  0  0            999 V2000
    4.0250   -3.0792    0.0000 C   0  0
    3.3292   -2.6792    0.0000 P   0  0
    6.7917   -3.0667    0.0000 P   0  0
    4.7167   -2.6667    0.0000 C   0  0
    2.3917   -2.6667    0.0000 O   0  0
    3.2375   -1.8375    0.0000 O   0  0
    2.8917   -3.4000    0.0000 O   0  0
    7.4875   -2.6667    0.0000 O   0  0
    7.5625   -3.2667    0.0000 O   0  0
    5.4042   -3.0667    0.0000 C   0  0
    6.7792   -3.8667    0.0000 O   0  0
    3.6167   -3.7667    0.0000 F   0  0
    4.4167   -3.7667    0.0000 F   0  0
    6.0917   -2.6625    0.0000 C   0  0
    4.7125   -1.8667    0.0000 O   0  0
  2  1  1  0
  3 14  1  0
  4  1  1  0
  5  2  1  0
  6  2  1  0
  7  2  2  0
  8  3  1  0
  9  3  1  0
 10  4  1  0
 11  3  2  0
 12  1  1  0
 13  1  1  0
 14 10  1  0
 15  4  2  0
M  END