
  CDK    9/16/09,10:4

 32 35  0  0  0  0  0  0  0  0999 V2000
    6.2692  -10.3163    0.0000 C   0  0  0  0  0  0  0  0  0  0  0  0
    7.0991  -10.2954    0.0000 C   0  0  0  0  0  0  0  0  0  0  0  0
    7.4938   -9.5726    0.0000 C   0  0  0  0  0  0  0  0  0  0  0  0
    7.0679   -8.8608    0.0000 C   0  0  0  0  0  0  0  0  0  0  0  0
    6.2379   -8.8816    0.0000 C   0  0  0  0  0  0  0  0  0  0  0  0
    5.8384   -9.6096    0.0000 N   0  0  0  0  0  0  0  0  0  0  0  0
    5.0136   -9.6352    0.0000 C   0  0  0  0  0  0  0  0  0  0  0  0
    8.3188   -9.5613    0.0000 C   0  0  0  0  0  0  0  0  0  0  0  0
    9.1439   -9.5456    0.0000 C   0  0  0  0  0  0  0  0  0  0  0  0
    8.3100   -8.7364    0.0000 C   0  0  0  0  0  0  0  0  0  0  0  0
    9.0168   -8.3152    0.0000 C   0  0  0  0  0  0  0  0  0  0  0  0
    9.0037   -7.4910    0.0000 C   0  0  0  0  0  0  0  0  0  0  0  0
    8.2839   -7.0892    0.0000 C   0  0  0  0  0  0  0  0  0  0  0  0
    7.5754   -7.5182    0.0000 C   0  0  0  0  0  0  0  0  0  0  0  0
    7.5877   -8.3408    0.0000 C   0  0  0  0  0  0  0  0  0  0  0  0
    9.5680  -10.2576    0.0000 C   0  0  0  0  0  0  0  0  0  0  0  0
   10.3922  -10.2424    0.0000 C   0  0  0  0  0  0  0  0  0  0  0  0
   10.7919   -9.5212    0.0000 C   0  0  0  0  0  0  0  0  0  0  0  0
   10.3656   -8.8094    0.0000 C   0  0  0  0  0  0  0  0  0  0  0  0
    9.5430   -8.8285    0.0000 C   0  0  0  0  0  0  0  0  0  0  0  0
    4.5752   -8.9379    0.0000 C   0  0  0  0  0  0  0  0  0  0  0  0
    3.7506   -8.9636    0.0000 O   0  0  0  0  0  0  0  0  0  0  0  0
    3.3166   -8.2619    0.0000 C   0  0  0  0  0  0  0  0  0  0  0  0
    2.4920   -8.2921    0.0000 C   0  0  0  0  0  0  0  0  0  0  0  0
    2.0575   -7.5888    0.0000 C   0  0  0  0  0  0  0  0  0  0  0  0
    1.2337   -7.6141    0.0000 C   0  0  0  0  0  0  0  0  0  0  0  0
    0.8466   -8.3467    0.0000 C   0  0  0  0  0  0  0  0  0  0  0  0
    1.2855   -9.0462    0.0000 C   0  0  0  0  0  0  0  0  0  0  0  0
    2.1077   -9.0172    0.0000 C   0  0  0  0  0  0  0  0  0  0  0  0
    6.6271   -9.3951    0.0000 C   0  0  0  0  0  0  0  0  0  0  0  0
    8.3177  -10.3835    0.0000 O   0  0  0  0  0  0  0  0  0  0  0  0
    5.8212   -5.0182    0.0000 Br  0  0  0  0  0  0  0  0  0  0  0  0
  9 16  2  0  0  0  0 
 16 17  1  0  0  0  0 
  3  8  1  0  0  0  0 
 17 18  2  0  0  0  0 
  1  2  1  0  0  0  0 
 18 19  1  0  0  0  0 
  8  9  1  0  0  0  0 
 19 20  2  0  0  0  0 
 20  9  1  0  0  0  0 
  1  6  1  0  0  0  0 
  7 21  1  0  0  0  0 
  8 10  1  0  0  0  0 
 21 22  1  0  0  0  0 
  2  3  1  0  0  0  0 
 22 23  1  0  0  0  0 
 10 11  2  0  0  0  0 
 23 24  1  0  0  0  0 
  3  4  1  0  0  0  0 
 24 25  2  0  0  0  0 
 11 12  1  0  0  0  0 
 25 26  1  0  0  0  0 
  4  5  1  0  0  0  0 
 26 27  2  0  0  0  0 
 12 13  2  0  0  0  0 
 27 28  1  0  0  0  0 
  5  6  1  0  0  0  0 
 28 29  2  0  0  0  0 
 29 24  1  0  0  0  0 
 13 14  1  0  0  0  0 
 14 15  2  0  0  0  0 
  6 30  1  0  0  0  0 
 30  3  1  0  0  0  0 
 15 10  1  0  0  0  0 
  8 31  1  0  0  0  0 
  6  7  1  0  0  0  0 
M  CHG  1   6   1
M  CHG  1  32  -1
M  END