
  SciTegic10191216062D

 25 27  0  0  0  0            999 V2000
   10.8643  -29.3332    0.0000 C   0  0
   11.6913  -29.3321    0.0000 O   0  0
   12.0974  -28.6170    0.0000 C   0  0
   11.6895  -27.9030    0.0000 C   0  0
   12.0987  -27.1912    0.0000 C   0  0
   12.9225  -27.1869    0.0000 C   0  0
   13.3369  -27.9009    0.0000 C   0  0
   12.9243  -28.6159    0.0000 C   0  0
   14.1607  -27.9028    0.0000 C   0  0
   14.6768  -27.2564    0.0000 C   0  0
   14.4630  -26.4626    0.0000 C   0  0
   15.1513  -26.0142    0.0000 O   0  0
   15.7949  -26.5280    0.0000 C   0  0
   15.4990  -27.3000    0.0000 C   0  0
   15.9498  -27.9920    0.0000 C   0  0
   16.7708  -27.9591    0.0000 C   0  0
   17.1604  -27.2306    0.0000 C   0  0
   17.9811  -27.2038    0.0000 C   0  0
   18.4183  -27.9034    0.0000 C   0  0
   18.0289  -28.6318    0.0000 C   0  0
   17.2042  -28.6565    0.0000 C   0  0
   19.2392  -27.8766    0.0000 O   0  0
   18.3706  -26.4754    0.0000 O   0  0
   19.1954  -26.4506    0.0000 C   0  0
   10.8624  -27.9041    0.0000 O   0  0
  1  2  1  0
  2  3  1  0
  3  4  2  0
  4  5  1  0
  5  6  2  0
  6  7  1  0
  7  8  2  0
  3  8  1  0
  7  9  1  0
 10  9  1  0
 10 11  1  0
 11 12  1  0
 12 13  1  0
 13 14  1  0
 10 14  1  0
 14 15  1  0
 15 16  1  0
 16 17  2  0
 17 18  1  0
 18 19  2  0
 19 20  1  0
 20 21  2  0
 16 21  1  0
 19 22  1  0
 18 23  1  0
 23 24  1  0
  4 25  1  0
M  END