
  SciTegic02011310402D

 29 32  0  0  0  0            999 V2000
    8.7486    1.8209    0.0000 C   0  0
    8.7474    0.9935    0.0000 C   0  0
    9.4622    0.5806    0.0000 C   0  0
    9.4604    2.2336    0.0000 C   0  0
   10.1758    1.8245    0.0000 C   0  0
   10.1746    0.9914    0.0000 C   0  0
   10.8915    0.5762    0.0000 C   0  0
   11.6142    0.9894    0.0000 N   0  0
   11.6154    1.8224    0.0000 N   0  0
   10.8939    2.2423    0.0000 C   0  0
   10.8892   -0.2488    0.0000 C   0  0
   10.1735   -0.6593    0.0000 C   0  0
    9.4629   -0.2400    0.0000 C   0  0
    8.7478   -0.6498    0.0000 C   0  0
    8.7450   -1.4757    0.0000 C   0  0
    9.4633   -1.8901    0.0000 C   0  0
   10.1755   -1.4779    0.0000 C   0  0
    8.0299   -1.8871    0.0000 Cl  0  0
   10.8939    3.0673    0.0000 O   0  0
   12.3308    2.2332    0.0000 C   0  0
   13.0443    1.8189    0.0000 C   0  0  1  0  0  0
   13.0572    0.9968    0.0000 C   0  0
   13.8465    0.7567    0.0000 C   0  0
   14.3187    1.4333    0.0000 C   0  0
   13.8212    2.0913    0.0000 N   0  0
   14.0595    2.8811    0.0000 C   0  0
   14.8627    3.0697    0.0000 C   0  0
   15.4275    2.4684    0.0000 C   0  0
   16.2307    2.6569    0.0000 C   0  0
 13 14  1  0
  1  2  2  0
 14 15  2  0
  5  4  2  0
 15 16  1  0
  4  1  1  0
 16 17  2  0
 17 12  1  0
  5 10  1  0
 15 18  1  0
  6  7  1  0
 10 19  2  0
  7  8  2  0
  9 20  1  0
  8  9  1  0
 21 20  1  6
 21 22  1  0
  9 10  1  0
  5  6  1  0
  7 11  1  0
 22 23  1  0
 23 24  1  0
 24 25  1  0
 25 21  1  0
 11 12  1  0
 25 26  1  0
  2  3  1  0
 26 27  1  0
 12 13  2  0
 27 28  1  0
  3  6  2  0
 28 29  1  0
M  END