
          08180812492D 1   1.00000     0.00000     0

 14 13  0     1  0            999 V2000
   -3.8845   -8.7464    0.0000 N   0  0  0  0  0  0           0  0  0
   -3.1727   -8.3364    0.0000 C   0  0  0  0  0  0           0  0  0
   -2.4568   -8.7464    0.0000 N   0  0  0  0  0  0           0  0  0
   -3.1727   -7.5123    0.0000 N   0  0  3  0  0  0           0  0  0
   -1.7449   -8.3364    0.0000 C   0  0  0  0  0  0           0  0  0
   -1.0290   -8.7464    0.0000 C   0  0  0  0  0  0           0  0  0
   -0.3130   -8.3364    0.0000 C   0  0  0  0  0  0           0  0  0
    0.3989   -8.7464    0.0000 C   0  0  1  0  0  0           0  0  0
    1.1148   -8.3364    0.0000 C   0  0  0  0  0  0           0  0  0
    0.3989   -9.5706    0.0000 N   0  0  0  0  0  0           0  0  0
    1.8266   -8.7464    0.0000 O   0  0  0  0  0  0           0  0  0
    1.1148   -7.5123    0.0000 O   0  0  0  0  0  0           0  0  0
   -2.4568   -7.0982    0.0000 C   0  0  0  0  0  0           0  0  0
   -3.8845   -7.0982    0.0000 N   0  0  0  0  0  0           0  0  0
  2  4  1  0     0  0
  7  8  1  0     0  0
  8  9  1  0     0  0
  3  5  1  0     0  0
  8 10  1  1     0  0
  2  3  2  0     0  0
  9 11  1  0     0  0
  5  6  1  0     0  0
  9 12  2  0     0  0
  1  2  1  0     0  0
  4 13  1  0     0  0
  6  7  1  0     0  0
  4 14  1  0     0  0
M  END