
          11280715122D 1   1.00000     0.00000     0

 29 32  0     0  0            999 V2000
    6.1667   -5.7292    0.0000 C   0  0  0  0  0  0           0  0  0
    6.4917   -6.4917    0.0000 C   0  0  0  0  0  0           0  0  0
    7.5000   -5.6042    0.0000 N   0  0  0  0  0  0           0  0  0
    6.7917   -5.1792    0.0000 C   0  0  0  0  0  0           0  0  0
    7.3250   -6.4167    0.0000 C   0  0  0  0  0  0           0  0  0
    5.0917   -5.3292    0.0000 C   0  0  0  0  0  0           0  0  0
    4.7917    0.4583    0.0000 C   0  0  3  0  0  0           0  0  0
    5.6125    0.4583    0.0000 C   0  0  0  0  0  0           0  0  0
    5.2000    1.1750    0.0000 C   0  0  0  0  0  0           0  0  0
    6.1542   -7.2375    0.0000 C   0  0  0  0  0  0           0  0  0
    3.3667    0.4583    0.0000 O   0  0  0  0  0  0           0  0  0
    4.9042   -4.2042    0.0000 C   0  0  3  0  0  0           0  0  0
    2.6542    0.0375    0.0000 C   0  0  0  0  0  0           0  0  0
    2.6542   -0.7917    0.0000 C   0  0  0  0  0  0           0  0  0
    7.8000   -7.0875    0.0000 C   0  0  0  0  0  0           0  0  0
    4.0792    0.0458    0.0000 C   0  0  0  0  0  0           0  0  0
    6.6250   -7.9125    0.0000 C   0  0  0  0  0  0           0  0  0
    4.0875   -3.2625    0.0000 N   0  0  0  0  0  0           0  0  0
    7.4542   -7.8375    0.0000 C   0  0  0  0  0  0           0  0  0
    6.2792   -8.6667    0.0000 Cl  0  0  0  0  0  0           0  0  0
    3.3667   -1.2042    0.0000 O   0  0  0  0  0  0           0  0  0
    5.7292   -4.2042    0.0000 C   0  0  0  0  0  0           0  0  0
    5.1167   -3.4042    0.0000 C   0  0  0  0  0  0           0  0  0
    1.9375    0.4500    0.0000 C   0  0  0  0  0  0           0  0  0
    1.9375   -1.2042    0.0000 C   0  0  0  0  0  0           0  0  0
    4.0875   -2.4375    0.0000 C   0  0  0  0  0  0           0  0  0
    3.3667   -2.0292    0.0000 C   0  0  0  0  0  0           0  0  0
    1.2250    0.0375    0.0000 C   0  0  0  0  0  0           0  0  0
    1.2250   -0.7917    0.0000 C   0  0  0  0  0  0           0  0  0
  2  1  1  0     0  0
  3  4  1  0     0  0
  4  1  2  0     0  0
  5  2  2  0     0  0
  6  1  1  0     0  0
  7 16  1  0     0  0
  8  7  1  0     0  0
  9  7  1  0     0  0
 10  2  1  0     0  0
 11 13  1  0     0  0
 12  6  1  0     0  0
 13 14  1  0     0  0
 14 21  1  0     0  0
 15  5  1  0     0  0
 16 11  1  0     0  0
 17 10  2  0     0  0
 18 12  1  0     0  0
 19 17  1  0     0  0
 20 17  1  0     0  0
 21 27  1  0     0  0
 22 12  1  0     0  0
 23 12  1  0     0  0
 24 13  2  0     0  0
 25 14  2  0     0  0
 26 18  1  0     0  0
 27 26  1  0     0  0
 28 29  2  0     0  0
 29 25  1  0     0  0
  3  5  1  0     0  0
 15 19  2  0     0  0
 28 24  1  0     0  0
  8  9  1  0     0  0
M  END