
  Mrv0541 04051115152D          

 11 11  0  0  0  0            999 V2000
    1.6341   -3.3364    0.0000 N   0  0  0  0  0  0  0  0  0  0  0  0
    1.6341   -2.5114    0.0000 C   0  0  0  0  0  0  0  0  0  0  0  0
    0.9196   -2.0989    0.0000 C   0  0  0  0  0  0  0  0  0  0  0  0
    0.9196   -1.2739    0.0000 C   0  0  0  0  0  0  0  0  0  0  0  0
    0.2052   -0.8614    0.0000 C   0  0  0  0  0  0  0  0  0  0  0  0
    0.2052   -0.0364    0.0000 C   0  0  0  0  0  0  0  0  0  0  0  0
    0.9196    0.3761    0.0000 C   0  0  0  0  0  0  0  0  0  0  0  0
    0.9196    1.2011    0.0000 O   0  0  0  0  0  0  0  0  0  0  0  0
    0.2052    1.6136    0.0000 C   0  0  0  0  0  0  0  0  0  0  0  0
    1.6341   -0.0364    0.0000 C   0  0  0  0  0  0  0  0  0  0  0  0
    1.6341   -0.8614    0.0000 C   0  0  0  0  0  0  0  0  0  0  0  0
  2  1  1  0  0  0  0
  2  3  1  0  0  0  0
  3  4  1  0  0  0  0
  5  4  2  0  0  0  0
 11  4  1  0  0  0  0
  5  6  1  0  0  0  0
  6  7  2  0  0  0  0
  7  8  1  0  0  0  0
 10  7  1  0  0  0  0
  9  8  1  0  0  0  0
 11 10  2  0  0  0  0
M  END