
  SciTegic04091414152D

 16 17  0  0  0  0            999 V2000
    5.7932   -3.1284    0.0000 C   0  0
    5.7921   -3.9479    0.0000 C   0  0
    6.5001   -4.3569    0.0000 C   0  0
    7.2098   -3.9475    0.0000 C   0  0
    7.2069   -3.1248    0.0000 C   0  0
    6.4983   -2.7195    0.0000 C   0  0
    5.0894   -2.7158    0.0000 C   0  0
    5.0038   -1.9031    0.0000 C   0  0
    4.2044   -1.7334    0.0000 C   0  0
    3.7959   -2.4412    0.0000 C   0  0
    4.3430   -3.0483    0.0000 O   0  0
    7.9131   -2.7135    0.0000 Cl  0  0
    7.9181   -4.3549    0.0000 F   0  0
    2.9817   -2.5284    0.0000 C   0  0
    2.5012   -1.8674    0.0000 O   0  0
    2.6496   -3.2750    0.0000 O   0  0
  1  2  2  0
  2  3  1  0
  3  4  2  0
  4  5  1  0
  5  6  2  0
  6  1  1  0
  7  8  2  0
  8  9  1  0
  9 10  2  0
 10 11  1  0
 11  7  1  0
  1  7  1  0
  5 12  1  0
  4 13  1  0
 14 15  1  0
 14 16  2  0
 10 14  1  0
M  END