
  SciTegic11201309402D

108117  0  0  0  0            999 V2000
   -1.1827   -1.5793    0.0000 C   0  0
   -1.1362   -3.2334    0.0000 O   0  0
    2.6300    0.5378    0.0000 N   0  0
    1.8069    0.5248    0.0000 C   0  0
    1.4065   -0.1965    0.0000 N   0  0
    1.3825    1.2322    0.0000 S   0  0
    0.5817   -0.2104    0.0000 C   0  0
    0.1629    0.4976    0.0000 C   0  0
   -0.6612    0.4840    0.0000 C   0  0
    0.1892   -0.9305    0.0000 C   0  0
   -0.6335   -0.9476    0.0000 C   0  0
   -1.0641   -0.2335    0.0000 C   0  0
   -1.8764   -0.4224    0.0000 C   0  0
   -1.9477   -1.2533    0.0000 O   0  0
   -2.4999    0.1179    0.0000 O   0  0
   -0.4533   -1.9681    0.0000 C   0  0
   -0.4340   -2.7975    0.0000 C   0  0
    0.2927   -3.1937    0.0000 C   0  0
    1.0006   -2.7616    0.0000 C   0  0
    0.9772   -1.9292    0.0000 C   0  0
    0.2500   -1.5368    0.0000 C   0  0
   -1.8641   -2.8383    0.0000 C   0  0
   -1.8855   -2.0162    0.0000 C   0  0
   -2.6070   -1.6254    0.0000 C   0  0
   -3.3077   -2.0556    0.0000 C   0  0
   -3.2822   -2.8808    0.0000 C   0  0
   -2.5602   -3.2679    0.0000 C   0  0
    1.7256   -3.1553    0.0000 O   0  0
   -3.9835   -3.3153    0.0000 O   0  0
   11.8943   -0.6255    0.0000 C   0  0
   12.7191   -0.6086    0.0000 N   0  0
   11.4965   -1.3482    0.0000 O   0  0
   13.1461   -1.3145    0.0000 C   0  0  2  0  0  0
   13.9710   -1.2976    0.0000 C   0  0
   12.7483   -2.0373    0.0000 C   0  0  1  0  0  0
   11.9235   -2.0541    0.0000 C   0  0
   13.1754   -2.7431    0.0000 O   0  0
   14.3980   -2.0035    0.0000 N   0  0
   14.3688   -0.5749    0.0000 O   0  0
   10.6475    0.0645    0.0000 N   0  0
   11.4677    0.0802    0.0000 C   0  0  1  0  0  0
   11.7061    0.8652    0.0000 C   0  0
   11.0331    1.3346    0.0000 C   0  0
   10.3788    0.8395    0.0000 C   0  0
   15.2228   -1.9866    0.0000 C   0  0  2  0  0  0
   15.6499   -2.6925    0.0000 C   0  0
   15.6206   -1.2639    0.0000 C   0  0
   15.2521   -3.4153    0.0000 O   0  0
   16.4722   -2.6756    0.0000 N   0  0
   16.4851   -3.4993    0.0000 C   0  0
   17.2722   -3.7463    0.0000 C   0  0
   17.7504   -3.0740    0.0000 C   0  0
   17.2590   -2.4099    0.0000 C   0  0  1  0  0  0
   17.6302   -1.6732    0.0000 C   0  0
   18.4531   -1.6264    0.0000 N   0  0
   17.1778   -0.9833    0.0000 O   0  0
   18.7516   -2.3948    0.0000 C   0  0
   19.5754   -2.3506    0.0000 C   0  0
   19.7879   -1.5534    0.0000 C   0  0
   19.0957   -1.1038    0.0000 C   0  0  1  0  0  0
   18.7868   -0.3388    0.0000 C   0  0
   19.2932    0.3197    0.0000 N   0  0
   17.9698   -0.2239    0.0000 O   0  0
   12.1463   -1.3349    0.0000 H   0  0
   10.2555   -0.6614    0.0000 C   0  0
    9.4308   -0.6848    0.0000 C   0  0
   10.6881   -1.3638    0.0000 O   0  0
    8.9982    0.0176    0.0000 N   0  0
   18.8729    1.0295    0.0000 C   0  0  2  0  0  0
   18.0479    1.0208    0.0000 C   0  0
   19.2769    1.7481    0.0000 C   0  0
   20.1012    1.7823    0.0000 C   0  0
   20.5431    1.0856    0.0000 C   0  0
   20.1621    0.3536    0.0000 O   0  0
   21.3689    1.1189    0.0000 O   0  0
   17.6276    1.7308    0.0000 N   0  0
   17.6429    0.3021    0.0000 O   0  0
   17.9288    2.4999    0.0000 C   0  0
   18.7449    2.6203    0.0000 C   0  0
   19.0488    3.3873    0.0000 N   0  0
   19.2573    1.9737    0.0000 O   0  0
    8.1735   -0.0058    0.0000 C   0  0
    7.7410    0.6969    0.0000 C   0  0  2  0  0  0
    7.7815   -0.7317    0.0000 O   0  0
   16.8028    1.7153    0.0000 C   0  0
   16.3769    2.4218    0.0000 C   0  0
   15.5520    2.4063    0.0000 C   0  0
   15.1531    1.6842    0.0000 C   0  0
    8.0075    1.4732    0.0000 C   0  0
    7.3494    1.9706    0.0000 C   0  0
    6.6728    1.4984    0.0000 C   0  0
    6.9118    0.7092    0.0000 N   0  0
    6.2140    0.2691    0.0000 C   0  0
    5.4839    0.6533    0.0000 C   0  0
    6.2463   -0.5553    0.0000 O   0  0
    4.7861    0.2131    0.0000 C   0  0
    4.0561    0.5973    0.0000 C   0  0
    3.3583    0.1572    0.0000 C   0  0
   14.3282    1.6686    0.0000 C   0  0
   13.9023    2.3752    0.0000 C   0  0
   11.8275    2.9013    0.0000 C   0  0
    8.9917    0.8458    0.0000 C   0  0
    9.7029    1.2639    0.0000 C   0  0
    9.6964    2.0889    0.0000 C   0  0
   10.5493    2.5278    0.0000 C   0  0
   19.8674   -0.4678    0.0000 H   0  0
   18.2554   -2.3249    0.0000 H   0  0
   12.4600    0.2043    0.0000 H   0  0
 10  7  1  0
 23 24  1  0
 11 12  1  0
 50 51  1  0
 51 52  1  0
 52 53  1  0
 53 49  1  0
 24 25  2  0
 53 54  1  0
  1 16  1  0
 54 55  1  0
 25 26  1  0
 54 56  2  0
 55 57  1  0
  4  5  1  0
 26 27  2  0
 27 22  1  0
 22  2  1  0
 57 58  1  0
 58 59  1  0
 59 60  1  0
 60 55  1  0
 19 28  1  0
 60 61  1  0
  4  6  2  0
 61 62  1  0
 26 29  1  0
 61 63  2  0
 12 13  1  0
 33 64  1  1
 41 30  1  0
 40 65  1  0
 13 14  1  0
 65 66  1  0
 30 31  1  0
 65 67  2  0
 14  1  1  0
 66 68  1  0
 30 32  2  0
 62 69  1  0
  1 11  1  0
 69 70  1  0
 31 33  1  0
 69 71  1  6
  2 17  1  0
 71 72  1  0
 33 34  1  0
 72 73  1  0
 13 15  2  0
 33 35  1  0
 73 74  1  0
 73 75  2  0
  5  7  1  0
 70 76  1  0
 35 36  1  6
 70 77  2  0
 76 78  1  0
 35 37  1  0
 78 79  1  0
 16 17  2  0
 79 80  1  0
 34 38  1  0
 79 81  2  0
  7  8  2  0
 68 82  1  0
 34 39  2  0
 83 82  1  1
 40 41  1  0
 82 84  2  0
 17 18  1  0
 76 85  1  0
  1 23  1  0
 85 86  1  0
 18 19  2  0
 86 87  1  0
  8  9  1  0
 87 88  1  0
 83 89  1  0
 19 20  1  0
 41 42  1  0
 42 43  1  0
 43 44  1  0
 89 90  1  0
 90 91  1  0
 91 92  1  0
 92 83  1  0
 44 40  1  0
 92 93  1  0
  9 12  2  0
 93 94  1  0
 38 45  1  0
 93 95  2  0
 20 21  2  0
 94 96  1  0
 45 46  1  0
 96 97  1  0
 21 16  1  0
 97 98  1  0
 98  3  1  0
 45 47  1  1
 88 99  1  0
  3  4  1  0
 99100  1  0
 46 48  2  0
100101  1  0
 11 10  2  0
 68102  1  0
 46 49  1  0
102103  1  0
 49 50  1  0
103104  1  0
 22 23  2  0
104105  1  0
105101  2  0
 60106  1  1
 53107  1  1
 41108  1  6
M  END