
          02060813472D 1   1.00000     0.00000     0

 70 71  0     1  0            999 V2000
    5.7125   -4.4114    0.0000 C   0  0  0  0  0  0           0  0  0
    4.9965   -3.9906    0.0000 S   0  0  0  0  0  0           0  0  0
    4.2782   -4.3964    0.0000 S   0  0  0  0  0  0           0  0  0
    3.5662   -3.9820    0.0000 C   0  0  0  0  0  0           0  0  0
    3.5762   -3.1547    0.0000 C   0  0  0  0  0  0           0  0  0
    2.8635   -2.7381    0.0000 C   0  0  0  0  0  0           0  0  0
    2.8745   -1.9106    0.0000 N   0  0  0  0  0  0           0  0  0
    2.1472   -3.1438    0.0000 O   0  0  0  0  0  0           0  0  0
    2.1585   -1.4899    0.0000 C   0  0  2  0  0  0           0  0  0
    2.1642   -0.6666    0.0000 C   0  0  0  0  0  0           0  0  0
    1.4402   -1.8965    0.0000 C   0  0  0  0  0  0           0  0  0
    0.7379   -1.4760    0.0000 C   0  0  0  0  0  0           0  0  0
    0.7441   -0.6494    0.0000 C   0  0  0  0  0  0           0  0  0
    0.0307   -0.2304    0.0000 C   0  0  0  0  0  0           0  0  0
   -0.6905   -0.6366    0.0000 C   0  0  0  0  0  0           0  0  0
   -0.6961   -1.4740    0.0000 C   0  0  0  0  0  0           0  0  0
    0.0146   -1.8820    0.0000 C   0  0  0  0  0  0           0  0  0
    2.8900   -0.2609    0.0000 N   0  0  0  0  0  0           0  0  0
    1.4578   -0.2522    0.0000 O   0  0  0  0  0  0           0  0  0
    3.6027   -0.3024    0.0000 C   0  0  2  0  0  0           0  0  0
    4.3128   -0.2716    0.0000 C   0  0  0  0  0  0           0  0  0
    5.0255   -0.6913    0.0000 N   0  0  0  0  0  0           0  0  0
    4.3227    0.5568    0.0000 O   0  0  0  0  0  0           0  0  0
    5.7490   -0.2857    0.0000 C   0  0  2  0  0  0           0  0  0
    6.4576   -0.7063    0.0000 C   0  0  0  0  0  0           0  0  0
    5.7506    0.5418    0.0000 C   0  0  0  0  0  0           0  0  0
    6.4731    0.9475    0.0000 C   0  0  0  0  0  0           0  0  0
    6.4809    1.7709    0.0000 C   0  0  0  0  0  0           0  0  0
    7.2035    2.1815    0.0000 N   0  0  0  0  0  0           0  0  0
    5.7681    2.1874    0.0000 O   0  0  0  0  0  0           0  0  0
    7.1759   -0.3007    0.0000 O   0  0  0  0  0  0           0  0  0
    6.4520   -1.5298    0.0000 N   0  0  0  0  0  0           0  0  0
    7.1646   -1.9481    0.0000 C   0  0  2  0  0  0           0  0  0
    7.1590   -2.7715    0.0000 C   0  0  0  0  0  0           0  0  0
    7.8791   -1.5437    0.0000 C   0  0  0  0  0  0           0  0  0
    8.5927   -1.9643    0.0000 C   0  0  0  0  0  0           0  0  0
    9.3175   -1.5524    0.0000 N   0  0  0  0  0  0           0  0  0
    8.5871   -2.7918    0.0000 O   0  0  0  0  0  0           0  0  0
    6.4407   -3.1773    0.0000 N   0  0  0  0  0  0           0  0  0
    7.8636   -3.1920    0.0000 O   0  0  0  0  0  0           0  0  0
    6.4254   -4.0110    0.0000 C   0  0  2  0  0  0           0  0  0
    7.1380   -4.4254    0.0000 C   0  0  0  0  0  0           0  0  0
    7.8557   -4.0195    0.0000 O   0  0  0  0  0  0           0  0  0
    3.5929   -1.0966    0.0000 C   0  0  2  0  0  0           0  0  0
    3.6023    0.5214    0.0000 H   0  0  0  0  0  0           0  0  0
    4.2093   -1.5572    0.0000 C   0  0  0  0  0  0           0  0  0
    4.2274   -2.5556    0.0000 C   0  0  0  0  0  0           0  0  0
    2.9191   -1.5241    0.0000 C   0  0  0  0  0  0           0  0  0
    7.1360   -5.2491    0.0000 N   0  0  0  0  0  0           0  0  0
    7.4349   -6.3781    0.0000 C   0  0  0  0  0  0           0  0  0
    7.8469   -5.6611    0.0000 C   0  0  3  0  0  0           0  0  0
    8.5597   -6.0730    0.0000 C   0  0  0  0  0  0           0  0  0
    8.5597   -6.8970    0.0000 N   0  0  0  0  0  0           0  0  0
    9.2768   -5.6611    0.0000 O   0  0  0  0  0  0           0  0  0
    9.2768   -7.3089    0.0000 C   0  0  2  0  0  0           0  0  0
    9.2768   -8.1371    0.0000 C   0  0  0  0  0  0           0  0  0
    9.9939   -6.8970    0.0000 C   0  0  0  0  0  0           0  0  0
   10.7047   -7.3089    0.0000 C   0  0  3  0  0  0           0  0  0
   11.4176   -6.8970    0.0000 C   0  0  0  0  0  0           0  0  0
   10.7047   -8.1371    0.0000 C   0  0  0  0  0  0           0  0  0
    8.5597   -8.5490    0.0000 O   0  0  0  0  0  0           0  0  0
    9.9939   -8.5490    0.0000 N   0  0  0  0  0  0           0  0  0
    9.9939   -9.3731    0.0000 C   0  0  0  0  0  0           0  0  0
   10.7047   -9.7850    0.0000 C   0  0  0  0  0  0           0  0  0
   11.4176   -9.3731    0.0000 N   0  0  0  0  0  0           0  0  0
   10.7047  -10.6090    0.0000 O   0  0  0  0  0  0           0  0  0
   -2.1198   -0.6336    0.0000 C   0  0  0  0  0  0           0  0  0
   -2.8340   -0.2168    0.0000 C   0  0  0  0  0  0           0  0  0
    8.2589   -4.9481    0.0000 C   0  0  0  0  0  0           0  0  0
   -1.4044   -0.2231    0.0000 O   0  0  0  0  0  0           0  0  0
 41  1  1  0     0  0
  1  2  1  0     0  0
  2  3  1  0     0  0
  3  4  1  0     0  0
  4  5  1  0     0  0
  5  6  1  0     0  0
  6  7  1  0     0  0
  6  8  2  0     0  0
  7  9  1  0     0  0
  9 10  1  0     0  0
  9 11  1  1     0  0
 11 12  1  0     0  0
 12 13  2  0     0  0
 13 14  1  0     0  0
 14 15  2  0     0  0
 15 16  1  0     0  0
 16 17  2  0     0  0
 17 12  1  0     0  0
 10 18  1  0     0  0
 10 19  2  0     0  0
 18 20  1  0     0  0
 20 21  1  0     0  0
 21 22  1  0     0  0
 21 23  2  0     0  0
 22 24  1  0     0  0
 24 25  1  0     0  0
 24 26  1  1     0  0
 26 27  1  0     0  0
 27 28  1  0     0  0
 28 29  1  0     0  0
 28 30  2  0     0  0
 25 31  2  0     0  0
 25 32  1  0     0  0
 32 33  1  0     0  0
 33 34  1  0     0  0
 33 35  1  1     0  0
 35 36  1  0     0  0
 36 37  1  0     0  0
 36 38  2  0     0  0
 34 39  1  0     0  0
 34 40  2  0     0  0
 39 41  1  0     0  0
 41 42  1  6     0  0
 42 43  2  0     0  0
 20 44  1  0     0  0
 20 45  1  1     0  0
 44 46  1  0     0  0
 46 47  1  0     0  0
 44 48  1  6     0  0
 42 49  1  0     0  0
 49 51  1  0     0  0
 50 51  1  0     0  0
 51 52  1  0     0  0
 52 53  1  0     0  0
 52 54  2  0     0  0
 53 55  1  0     0  0
 55 56  1  0     0  0
 55 57  1  1     0  0
 57 58  1  0     0  0
 58 59  1  0     0  0
 58 60  1  0     0  0
 56 61  2  0     0  0
 56 62  1  0     0  0
 62 63  1  0     0  0
 63 64  1  0     0  0
 64 65  1  0     0  0
 64 66  2  0     0  0
 67 68  1  0     0  0
 51 69  1  0     0  0
 15 70  1  0     0  0
 70 67  1  0     0  0
M  END