
  Mrv0541 09061315132D          

 22 24  0  0  0  0            999 V2000
   13.3814  -13.2855    0.0000 N   0  0  0  0  0  0  0  0  0  0  0  0
   11.6673  -11.9395    0.0000 C   0  0  0  0  0  0  0  0  0  0  0  0
    8.4178  -10.4859    0.0000 C   0  0  0  0  0  0  0  0  0  0  0  0
   12.9354  -12.5958    0.0000 C   0  0  0  0  0  0  0  0  0  0  0  0
   12.8988  -11.1640    0.0000 C   0  0  0  0  0  0  0  0  0  0  0  0
    8.4150   -9.6543    0.0000 C   0  0  0  0  0  0  0  0  0  0  0  0
    9.1080  -10.9363    0.0000 C   0  0  0  0  0  0  0  0  0  0  0  0
    6.9881   -9.6581    0.0000 C   0  0  0  0  0  0  0  0  0  0  0  0
   10.3986  -11.2853    0.0000 C   0  0  0  0  0  0  0  0  0  0  0  0
    9.1492  -11.7613    0.0000 N   0  0  0  0  0  0  0  0  0  0  0  0
    6.2738   -9.2451    0.0000 F   0  0  0  0  0  0  0  0  0  0  0  0
   11.5935  -10.5135    0.0000 C   0  0  0  0  0  0  0  0  0  0  0  0
   12.4915  -11.9028    0.0000 C   0  0  0  0  0  0  0  0  0  0  0  0
    6.9870  -10.4864    0.0000 C   0  0  0  0  0  0  0  0  0  0  0  0
    9.8795  -10.6437    0.0000 N   0  0  0  0  0  0  0  0  0  0  0  0
   12.4161  -10.4691    0.0000 C   0  0  0  0  0  0  0  0  0  0  0  0
    9.9463  -11.9754    0.0000 O   0  0  0  0  0  0  0  0  0  0  0  0
    7.7015  -10.8999    0.0000 N   0  0  0  0  0  0  0  0  0  0  0  0
   11.2195  -11.2452    0.0000 C   0  0  0  0  0  0  0  0  0  0  0  0
   12.7903   -9.7337    0.0000 F   0  0  0  0  0  0  0  0  0  0  0  0
    7.6997   -9.2447    0.0000 C   0  0  0  0  0  0  0  0  0  0  0  0
   13.7249  -11.1619    0.0000 H   0  0  0  0  0  0  0  0  0  0  0  0
 14 18  1  0  0  0  0
 16 20  1  0  0  0  0
  2 13  1  0  0  0  0
 17  9  1  0  0  0  0
  9 19  1  0  0  0  0
  9 15  2  0  0  0  0
  3  6  1  0  0  0  0
 18  3  2  0  0  0  0
 13  5  2  0  0  0  0
  4  1  3  0  0  0  0
 10 17  1  0  0  0  0
 16 12  2  0  0  0  0
 13  4  1  0  0  0  0
  8 11  1  0  0  0  0
  5 16  1  0  0  0  0
  7 10  2  0  0  0  0
 15  7  1  0  0  0  0
  8 14  2  0  0  0  0
  3  7  1  0  0  0  0
 21  8  1  0  0  0  0
 12 19  1  0  0  0  0
  6 21  2  0  0  0  0
 19  2  2  0  0  0  0
  5 22  1  0  0  0  0
M  ISO  1  22   3
M  END