
          11280715492D 1   1.00000     0.00000     0

 26 29  0     1  0            999 V2000
   11.7365   -9.5207    0.0000 C   0  0  0  0  0  0           0  0  0
   10.9409   -9.3962    0.0000 N   0  0  3  0  0  0           0  0  0
   11.3907   -8.8454    0.0000 C   0  0  0  0  0  0           0  0  0
   10.2481   -9.9588    0.0000 C   0  0  0  0  0  0           0  0  0
   10.7954   -8.3835    0.0000 C   0  0  0  0  0  0           0  0  0
   10.6073   -8.7308    0.0000 C   0  0  3  0  0  0           0  0  0
    9.9471   -9.2777    0.0000 C   0  0  2  0  0  0           0  0  0
   10.4046   -7.8791    0.0000 C   0  0  0  0  0  0           0  0  0
    9.5170   -8.5693    0.0000 O   0  0  0  0  0  0           0  0  0
    8.6940   -8.5876    0.0000 C   0  0  0  0  0  0           0  0  0
    9.2330   -9.7003    0.0000 C   0  0  0  0  0  0           0  0  0
    8.5229  -10.1223    0.0000 C   0  0  0  0  0  0           0  0  0
    7.8130  -10.5443    0.0000 C   0  0  1  0  0  0           0  0  0
    7.1029  -10.9663    0.0000 C   0  0  0  0  0  0           0  0  0
    8.2336  -11.2520    0.0000 C   0  0  0  0  0  0           0  0  0
    7.3924   -9.8366    0.0000 O   0  0  0  0  0  0           0  0  0
    6.3808  -10.5632    0.0000 C   0  0  0  0  0  0           0  0  0
    5.6747  -10.9835    0.0000 C   0  0  0  0  0  0           0  0  0
    5.6847  -11.8103    0.0000 C   0  0  0  0  0  0           0  0  0
    6.4075  -12.2147    0.0000 C   0  0  0  0  0  0           0  0  0
    7.1134  -11.7912    0.0000 C   0  0  0  0  0  0           0  0  0
    8.2475  -12.6771    0.0000 N   0  0  0  0  0  0           0  0  0
    9.0717  -12.6658    0.0000 C   0  0  0  0  0  0           0  0  0
    9.4717  -11.9504    0.0000 C   0  0  0  0  0  0           0  0  0
    9.0522  -11.2417    0.0000 C   0  0  0  0  0  0           0  0  0
    7.8235  -11.9730    0.0000 C   0  0  0  0  0  0           0  0  0
  2  5  1  0     0  0
 12 13  1  0     0  0
  3  6  1  0     0  0
 13 14  1  0     0  0
  4  7  1  0     0  0
 13 15  1  1     0  0
  5  8  1  0     0  0
 13 16  1  0     0  0
  6  7  1  0     0  0
 14 17  2  0     0  0
  6  8  1  0     0  0
 17 18  1  0     0  0
 18 19  2  0     0  0
  7  9  1  1     0  0
 19 20  1  0     0  0
  1  2  1  0     0  0
 20 21  2  0     0  0
 21 14  1  0     0  0
  9 10  1  0     0  0
  1  3  1  0     0  0
  7 11  1  0     0  0
  2  4  1  0     0  0
 11 12  3  0     0  0
 22 26  2  0     0  0
 22 23  1  0     0  0
 23 24  2  0     0  0
 24 25  1  0     0  0
 25 15  2  0     0  0
 15 26  1  0     0  0
M  END