
  CDK    9/16/09,9:57

 22 23  0  0  0  0  0  0  0  0999 V2000
   -3.6930  -10.0530    0.0000 C   0  0  0  0  0  0  0  0  0  0  0  0
   -3.6683  -10.8776    0.0000 C   0  0  0  0  0  0  0  0  0  0  0  0
   -2.9418  -11.2685    0.0000 N   0  0  0  0  0  0  0  0  0  0  0  0
   -2.2400  -10.8349    0.0000 C   0  0  0  0  0  0  0  0  0  0  0  0
   -1.5135  -11.2258    0.0000 N   0  0  0  0  0  0  0  0  0  0  0  0
   -2.2647  -10.0102    0.0000 N   0  0  0  0  0  0  0  0  0  0  0  0
   -0.8117  -10.7921    0.0000 C   0  0  0  0  0  0  0  0  0  0  0  0
   -0.8364   -9.9675    0.0000 O   0  0  0  0  0  0  0  0  0  0  0  0
   -4.4194   -9.6620    0.0000 C   0  0  0  0  0  0  0  0  0  0  0  0
   -4.4441   -8.8374    0.0000 C   0  0  0  0  0  0  0  0  0  0  0  0
   -4.0297   -7.5685    0.0000 C   0  0  0  0  0  0  0  0  0  0  0  0
   -4.8547   -7.5674    0.0000 N   0  0  0  0  0  0  0  0  0  0  0  0
   -5.1125   -8.3512    0.0000 C   0  0  0  0  0  0  0  0  0  0  0  0
   -3.7781   -8.3529    0.0000 N   0  0  0  0  0  0  0  0  0  0  0  0
   -0.0852  -11.1831    0.0000 C   0  0  0  0  0  0  0  0  0  0  0  0
   -0.0605  -12.0077    0.0000 C   0  0  0  0  0  0  0  0  0  0  0  0
   -0.7628  -12.4361    0.0000 C   0  0  0  0  0  0  0  0  0  0  0  0
   -0.7385  -13.2599    0.0000 C   0  0  0  0  0  0  0  0  0  0  0  0
   -0.0114  -13.6517    0.0000 C   0  0  0  0  0  0  0  0  0  0  0  0
    0.6926  -13.2135    0.0000 C   0  0  0  0  0  0  0  0  0  0  0  0
    0.6649  -12.3911    0.0000 C   0  0  0  0  0  0  0  0  0  0  0  0
    0.6166  -10.7494    0.0000 C   0  0  0  0  0  0  0  0  0  0  0  0
  4  6  2  0  0  0  0 
  1  2  1  0  0  0  0 
  5  7  1  0  0  0  0 
 12 13  1  0  0  0  0 
 13 10  2  0  0  0  0 
 10 14  1  0  0  0  0 
 14 11  2  0  0  0  0 
  3  4  1  0  0  0  0 
  7 15  1  0  0  0  0 
  7  8  2  0  0  0  0 
 15 16  1  0  0  0  0 
 16 17  1  0  0  0  0 
  1  9  1  0  0  0  0 
 17 18  1  0  0  0  0 
  4  5  1  0  0  0  0 
 18 19  1  0  0  0  0 
  9 10  1  0  0  0  0 
 19 20  1  0  0  0  0 
 11 12  1  0  0  0  0 
 20 21  1  0  0  0  0 
 21 16  1  0  0  0  0 
  2  3  1  0  0  0  0 
 15 22  1  0  0  0  0 
M  END