
          11290715122D 1   1.00000     0.00000     0

 42 44  0     0  0            999 V2000
   11.4429   -1.9987    0.0000 C   0  0  0  0  0  0           0  0  0
   10.7248   -2.4143    0.0000 C   0  0  2  0  0  0           0  0  0
   10.0110   -1.9987    0.0000 C   0  0  0  0  0  0           0  0  0
    9.2970   -2.4143    0.0000 C   0  0  0  0  0  0           0  0  0
    9.2962   -3.2398    0.0000 C   0  0  0  0  0  0           0  0  0
    8.5819   -3.6493    0.0000 C   0  0  0  0  0  0           0  0  0
    7.8636   -3.2384    0.0000 C   0  0  0  0  0  0           0  0  0
    7.8642   -2.4134    0.0000 C   0  0  0  0  0  0           0  0  0
    8.5832   -1.9992    0.0000 C   0  0  0  0  0  0           0  0  0
   11.4429   -1.1760    0.0000 O   0  0  0  0  0  0           0  0  0
    8.5832   -1.1765    0.0000 C   0  0  0  0  0  0           0  0  0
   10.0102   -3.6511    0.0000 C   0  0  0  0  0  0           0  0  0
   12.1565   -3.2398    0.0000 C   0  0  0  0  0  0           0  0  0
   12.1567   -2.4143    0.0000 N   0  0  3  0  0  0           0  0  0
   12.8732   -2.0001    0.0000 C   0  0  3  0  0  0           0  0  0
   13.5791   -2.4147    0.0000 C   0  0  0  0  0  0           0  0  0
   13.5791   -3.2398    0.0000 C   0  0  0  0  0  0           0  0  0
   14.2975   -3.6502    0.0000 C   0  0  0  0  0  0           0  0  0
   14.2975   -4.4752    0.0000 C   0  0  0  0  0  0           0  0  0
   13.5791   -4.8857    0.0000 C   0  0  0  0  0  0           0  0  0
   12.8709   -4.4752    0.0000 C   0  0  0  0  0  0           0  0  0
   12.8709   -3.6502    0.0000 C   0  0  0  0  0  0           0  0  0
   12.8732   -1.1760    0.0000 C   0  0  0  0  0  0           0  0  0
   12.1552   -0.7606    0.0000 O   0  0  0  0  0  0           0  0  0
   13.5859   -0.7612    0.0000 N   0  0  0  0  0  0           0  0  0
   13.5859    0.0622    0.0000 C   0  0  2  0  0  0           0  0  0
   12.1645    0.0597    0.0000 O   0  0  0  0  0  0           0  0  0
   12.8759    0.4714    0.0000 C   0  0  0  0  0  0           0  0  0
   14.3036    0.4758    0.0000 C   0  0  0  0  0  0           0  0  0
   15.0242    0.0606    0.0000 C   0  0  0  0  0  0           0  0  0
   15.7347    0.4701    0.0000 C   0  0  0  0  0  0           0  0  0
   16.4502    0.0577    0.0000 O   0  0  0  0  0  0           0  0  0
   12.8751    1.2941    0.0000 N   0  0  0  0  0  0           0  0  0
   12.1623    1.7048    0.0000 C   0  0  0  0  0  0           0  0  0
   11.4502    1.2928    0.0000 C   0  0  0  0  0  0           0  0  0
   10.7372    1.7035    0.0000 C   0  0  0  0  0  0           0  0  0
   10.0252    1.2914    0.0000 C   0  0  0  0  0  0           0  0  0
    9.3123    1.7022    0.0000 C   0  0  0  0  0  0           0  0  0
    8.6002    1.2901    0.0000 N   0  0  0  0  0  0           0  0  0
   10.7248   -3.2370    0.0000 N   0  0  0  0  0  0           0  0  0
    7.1498   -3.6497    0.0000 O   0  0  0  0  0  0           0  0  0
   15.7347    1.2950    0.0000 O   0  0  0  0  0  0           0  0  0
  8  9  2  0     0  0
  4  9  1  0     0  0
  1 10  2  0     0  0
  9 11  1  0     0  0
  5 12  1  0     0  0
 13 14  1  0     0  0
 14 15  1  0     0  0
 15 16  1  0     0  0
 16 17  1  0     0  0
 17 18  1  0     0  0
 18 19  2  0     0  0
 19 20  1  0     0  0
 20 21  2  0     0  0
 21 22  1  0     0  0
 13 22  1  0     0  0
 17 22  2  0     0  0
 23 24  2  0     0  0
 15 23  1  0     0  0
  1 14  1  0     0  0
 25 26  1  0     0  0
 26 28  1  0     0  0
 28 27  2  0     0  0
 26 29  1  6     0  0
 29 30  1  0     0  0
 30 31  1  0     0  0
 31 32  2  0     0  0
 23 25  1  0     0  0
 28 33  1  0     0  0
 33 34  1  0     0  0
  1  2  1  0     0  0
 34 35  1  0     0  0
  2  3  1  0     0  0
 35 36  1  0     0  0
  3  4  1  0     0  0
 36 37  1  0     0  0
  4  5  2  0     0  0
 37 38  1  0     0  0
  5  6  1  0     0  0
 38 39  1  0     0  0
  6  7  2  0     0  0
  7  8  1  0     0  0
  7 41  1  0     0  0
  2 40  1  1     0  0
 31 42  1  0     0  0
M  END