
          03140815512D 1   1.00000     0.00000     0

 28 32  0     1  0            999 V2000
   -4.1781  -10.7749    0.0000 C   0  0  0  0  0  0           0  0  0
   -3.5369  -10.0913    0.0000 C   0  0  3  0  0  0           0  0  0
   -3.3737  -10.5499    0.0000 C   0  0  3  0  0  0           0  0  0
   -2.8255  -10.3539    0.0000 C   0  0  0  0  0  0           0  0  0
   -2.6210  -10.8527    0.0000 C   0  0  0  0  0  0           0  0  0
   -2.0777  -10.1684    0.0000 C   0  0  3  0  0  0           0  0  0
   -3.3805   -9.7016    0.0000 C   0  0  0  0  0  0           0  0  0
   -2.8198   -9.0395    0.0000 C   0  0  3  0  0  0           0  0  0
   -3.5413   -9.2959    0.0000 C   0  0  0  0  0  0           0  0  0
   -2.0718   -9.3495    0.0000 C   0  0  0  0  0  0           0  0  0
   -2.8250   -8.2125    0.0000 C   0  0  0  0  0  0           0  0  0
   -2.1132   -7.7955    0.0000 N   0  0  0  0  0  0           0  0  0
   -1.3961   -8.2035    0.0000 C   0  0  0  0  0  0           0  0  0
   -0.6842   -7.7864    0.0000 C   0  0  0  0  0  0           0  0  0
   -1.3909   -9.0284    0.0000 O   0  0  0  0  0  0           0  0  0
    0.0301   -8.1950    0.0000 C   0  0  0  0  0  0           0  0  0
    0.7415   -7.7787    0.0000 C   0  0  0  0  0  0           0  0  0
    0.7367   -6.9529    0.0000 C   0  0  0  0  0  0           0  0  0
    0.0146   -6.5451    0.0000 C   0  0  0  0  0  0           0  0  0
   -0.6938   -6.9637    0.0000 C   0  0  0  0  0  0           0  0  0
    0.0342   -9.0200    0.0000 Cl  0  0  0  0  0  0           0  0  0
    0.0065   -5.7201    0.0000 O   0  0  0  0  0  0           0  0  0
    0.7169   -5.3006    0.0000 C   0  0  2  0  0  0           0  0  0
    1.4385   -5.7104    0.0000 C   0  0  0  0  0  0           0  0  0
    2.1468   -5.2944    0.0000 N   0  0  0  0  0  0           0  0  0
    2.1429   -4.4690    0.0000 C   0  0  0  0  0  0           0  0  0
    1.4246   -4.0614    0.0000 C   0  0  0  0  0  0           0  0  0
    0.7101   -4.4791    0.0000 C   0  0  0  0  0  0           0  0  0
 12 13  1  0     0  0
  2  4  1  0     0  0
 13 14  1  0     0  0
  3  5  1  0     0  0
 13 15  2  0     0  0
  4  6  1  0     0  0
 14 16  2  0     0  0
  5  6  1  0     0  0
 16 17  1  0     0  0
  7  8  1  0     0  0
 17 18  2  0     0  0
  3  7  1  0     0  0
 18 19  1  0     0  0
  2  9  1  0     0  0
 19 20  2  0     0  0
 20 14  1  0     0  0
  6 10  1  0     0  0
 16 21  1  0     0  0
 10  8  1  0     0  0
 19 22  1  0     0  0
  8  9  1  0     0  0
 23 22  1  1     0  0
 23 24  1  0     0  0
  8 11  1  0     0  0
  1  2  1  0     0  0
 11 12  1  0     0  0
  1  3  1  0     0  0
 23 28  1  0     0  0
 24 25  1  0     0  0
 25 26  1  0     0  0
 26 27  1  0     0  0
 27 28  1  0     0  0
M  END