
  SciTegic09291412002D

 74 77  0  0  0  0            999 V2000
    9.9937   -6.5008    0.0000 C   0  0
    9.9937   -7.3339    0.0000 C   0  0
   10.7127   -7.7462    0.0000 C   0  0
   11.4318   -7.3339    0.0000 C   0  0
   11.4318   -6.5008    0.0000 C   0  0
   10.7127   -6.0801    0.0000 C   0  0
    8.5619   -7.3376    0.0000 S   0  0
    9.2721   -6.9252    0.0000 S   0  0
    4.9486   -6.6927    0.0000 O   0  0
    5.7039   -7.3376    0.0000 O   0  0
    3.5811   -3.3721    0.0000 O   0  0
    5.7039   -8.1623    0.0000 O   0  0
    9.2721  -11.8734    0.0000 O   0  0
    6.4183  -11.0487    0.0000 O   0  0
   12.1301  -11.0487    0.0000 O   0  0
    4.9894   -8.5746    0.0000 O   0  0
   11.4198   -8.1623    0.0000 O   0  0
    1.4172   -5.3887    0.0000 O   0  0
    6.4183   -6.1005    0.0000 N   0  0
   10.7054  -11.0487    0.0000 N   0  0
    5.7506   -5.6151    0.0000 C   0  0  1  0  0  0
    6.0061   -4.8281    0.0000 C   0  0
    6.8307   -4.8281    0.0000 C   0  0
    7.0862   -5.6151    0.0000 C   0  0
    4.9666   -5.8704    0.0000 C   0  0
    6.4183   -6.9252    0.0000 C   0  0
    7.1329   -7.3376    0.0000 C   0  0  2  0  0  0
    4.2731   -4.6212    0.0000 C   0  0  1  0  0  0
    4.9950   -4.2166    0.0000 C   0  0
    7.8474   -6.9252    0.0000 C   0  0
    4.9897   -3.3942    0.0000 C   0  0
    3.5672   -4.1944    0.0000 C   0  0
    6.4183   -8.5746    0.0000 C   0  0
    6.4183   -9.3993    0.0000 C   0  0  2  0  0  0
    9.9908  -11.9533    0.0000 C   0  0  2  0  0  0
    9.9908  -10.6364    0.0000 C   0  0  1  0  0  0
    5.7030   -2.9769    0.0000 C   0  0
    4.2740   -2.9840    0.0000 C   0  0
    7.8475  -11.0487    0.0000 C   0  0  2  0  0  0
   10.7054  -12.3699    0.0000 C   0  0
    5.7039   -9.8117    0.0000 C   0  0
    9.2721  -11.0487    0.0000 C   0  0
    7.1329  -10.6364    0.0000 C   0  0
    9.0578  -12.4919    0.0000 C   0  0
    7.8475  -11.8734    0.0000 C   0  0
   11.4198   -9.8117    0.0000 C   0  0  2  0  0  0
   11.4198  -10.6364    0.0000 C   0  0
    2.1541   -4.1700    0.0000 C   0  0
   10.7054  -13.1945    0.0000 C   0  0
    7.1331  -12.2858    0.0000 C   0  0
   12.1301   -9.3993    0.0000 C   0  0
    9.9908   -8.1623    0.0000 C   0  0
    4.9894   -9.3993    0.0000 C   0  0
   10.7054   -8.5746    0.0000 C   0  0
   12.8446   -9.8117    0.0000 C   0  0
    1.4312   -4.5664    0.0000 C   0  0
   13.5635   -9.3993    0.0000 C   0  0
   12.8447  -10.6364    0.0000 C   0  0
   14.2736   -9.8117    0.0000 C   0  0
   13.5635  -11.0487    0.0000 C   0  0
   14.2736  -10.6364    0.0000 C   0  0
   14.9641  -11.0490    0.0000 O   0  0
    8.5379  -10.6366    0.0000 N   0  0
    7.1088   -8.1625    0.0000 N   0  0
   10.6813   -9.3995    0.0000 N   0  0
    2.8533   -4.6079    0.0000 N   0  0
    4.2636   -9.8048    0.0000 N   0  0
    4.2591   -5.4461    0.0000 N   0  0
    0.7253   -4.1438    0.0000 N   0  0
    7.1329   -9.8117    0.0000 N   0  0
    7.1329  -13.1189    0.0000 C   0  0
    6.4113  -13.5354    0.0000 N   0  0
    7.8543  -13.5356    0.0000 O   0  0
   10.4909  -11.5024    0.0000 H   0  0
  1  2  1  0
  1  6  1  0
  2  3  1  0
  3  4  1  0
  4  5  1  0
  5  6  1  0
 16 53  2  0
 17 54  2  0
 18 56  2  0
 62 61  1  0
 19 21  1  0
 19 24  1  0
 19 26  1  0
 68 25  1  0
 28 68  1  6
 64 27  1  0
 64 33  1  0
 66 32  1  0
 66 48  1  0
 70 34  1  0
 70 43  1  0
 36 20  1  0
 20 47  1  0
 63 39  1  0
 63 42  1  0
 65 46  1  0
 65 54  1  0
 67 53  1  0
 69 56  1  0
 21 22  1  0
 21 25  1  6
 22 23  1  0
 23 24  1  0
 27 26  1  6
 27 30  1  0
 28 29  1  0
 28 32  1  0
 29 31  1  0
 31 37  1  0
 31 38  1  0
 33 34  1  0
 34 41  1  1
 35 36  1  0
 35 40  1  0
 35 44  1  6
 36 42  1  0
 39 43  1  0
 39 45  1  1
 40 49  1  0
 41 53  1  0
 45 50  1  0
 46 47  1  0
 46 51  1  1
 48 56  1  0
 51 55  1  0
  2 52  1  0
 52 54  1  0
 55 57  2  0
 55 58  1  0
 57 59  1  0
 58 60  2  0
 59 61  2  0
 60 61  1  0
  7  8  1  0
  7 30  1  0
  8  2  1  0
  9 25  2  0
 10 26  2  0
 11 32  2  0
 12 33  2  0
 13 42  2  0
 14 43  2  0
 15 47  2  0
 50 71  1  0
 71 72  1  0
 71 73  2  0
 36 74  1  6
M  STY  8   1 SUP   2 SUP   3 SUP   4 SUP   5 SUP   6 SUP   7 SUP   8 SUP
M  STY  1   9 SUP
M  SLB  8   1   1   2   2   3   3   4   4   5   5   6   6   7   7   8   8
M  SLB  1   9   9
M  SAL   1  1  62
M  SBL   1  1  10
M  SMT   1 O
M  SAL   2  1  63
M  SBL   2  2  24  25
M  SMT   2 N
M  SAL   3  1  64
M  SBL   3  2  16  17
M  SMT   3 N
M  SAL   4  1  65
M  SBL   4  2  26  27
M  SMT   4 N
M  SAL   5  1  66
M  SBL   5  2  18  19
M  SMT   5 N
M  SAL   6  1  67
M  SBL   6  1  28
M  SMT   6 N
M  SAL   7  1  68
M  SBL   7  2  14  15
M  SMT   7 N
M  SAL   8  1  69
M  SBL   8  1  29
M  SMT   8 N
M  SAL   9  1  70
M  SBL   9  2  20  21
M  SMT   9 N
M  END