
          11280715192D 1   1.00000     0.00000     0

 18 19  0     0  0            999 V2000
    5.9667   -4.2792    0.0000 N   0  0  3  0  0  0           0  0  0
    6.7625   -4.0250    0.0000 C   0  0  0  0  0  0           0  0  0
    7.1417   -6.1375    0.0000 C   0  0  0  0  0  0           0  0  0
    6.4917   -5.6167    0.0000 C   0  0  0  0  0  0           0  0  0
    5.8417   -5.1042    0.0000 C   0  0  3  0  0  0           0  0  0
    7.6667   -7.4667    0.0000 N   0  0  3  0  0  0           0  0  0
    7.3750   -4.5792    0.0000 O   0  0  0  0  0  0           0  0  0
    7.7917   -6.6500    0.0000 C   0  0  0  0  0  0           0  0  0
    5.4000   -3.6792    0.0000 C   0  0  0  0  0  0           0  0  0
    6.9375   -3.2250    0.0000 C   0  0  0  0  0  0           0  0  0
    8.2500   -8.0417    0.0000 C   0  0  0  0  0  0           0  0  0
    6.9417   -7.8417    0.0000 C   0  0  0  0  0  0           0  0  0
    5.1292   -5.5167    0.0000 C   0  0  0  0  0  0           0  0  0
    4.5875   -3.7500    0.0000 C   0  0  0  0  0  0           0  0  0
    7.0792   -8.6542    0.0000 C   0  0  0  0  0  0           0  0  0
    7.8750   -8.7667    0.0000 C   0  0  0  0  0  0           0  0  0
    4.3542   -5.2167    0.0000 C   0  0  0  0  0  0           0  0  0
    4.1125   -4.4375    0.0000 C   0  0  0  0  0  0           0  0  0
  2  1  1  0     0  0
  3  4  3  0     0  0
  4  5  1  0     0  0
  5  1  1  0     0  0
  6  8  1  0     0  0
  7  2  2  0     0  0
  8  3  1  0     0  0
  9  1  1  0     0  0
 10  2  1  0     0  0
 11  6  1  0     0  0
 12  6  1  0     0  0
 13  5  1  0     0  0
 14  9  1  0     0  0
 15 12  1  0     0  0
 16 11  1  0     0  0
 17 13  1  0     0  0
 18 14  1  0     0  0
 17 18  1  0     0  0
 15 16  1  0     0  0
M  END