
          11280715342D 1   1.00000     0.00000     0

 29 30  0     0  0            999 V2000
    0.2417   -0.7750    0.0000 S   0  0  3  0  0  0           0  0  0
    3.5292   -0.7625    0.0000 C   0  0  0  0  0  0           0  0  0
    6.5417   -2.8042    0.0000 C   0  0  3  0  0  0           0  0  0
    7.3542   -2.6667    0.0000 C   0  0  0  0  0  0           0  0  0
    6.0167   -2.1750    0.0000 N   0  0  0  0  0  0           0  0  0
    1.0625   -0.7750    0.0000 C   0  0  0  0  0  0           0  0  0
    5.1917   -2.1792    0.0000 C   0  0  0  0  0  0           0  0  0
    3.9500   -1.4750    0.0000 N   0  0  0  0  0  0           0  0  0
    0.2375   -1.6000    0.0000 O   0  0  0  0  0  0           0  0  0
    0.2417    0.0500    0.0000 O   0  0  0  0  0  0           0  0  0
    2.7042   -0.7667    0.0000 C   0  0  0  0  0  0           0  0  0
   -0.5875   -0.7667    0.0000 N   0  0  0  0  0  0           0  0  0
    6.2542   -3.5792    0.0000 C   0  0  0  0  0  0           0  0  0
    3.9417   -0.0417    0.0000 O   0  0  0  0  0  0           0  0  0
    7.6417   -1.8917    0.0000 O   0  0  0  0  0  0           0  0  0
    4.7792   -2.8917    0.0000 O   0  0  0  0  0  0           0  0  0
    1.4667   -0.0625    0.0000 C   0  0  0  0  0  0           0  0  0
    1.4792   -1.4875    0.0000 C   0  0  0  0  0  0           0  0  0
    2.3000   -1.4792    0.0000 C   0  0  0  0  0  0           0  0  0
    2.2875   -0.0542    0.0000 C   0  0  0  0  0  0           0  0  0
    4.7750   -1.4667    0.0000 C   0  0  0  0  0  0           0  0  0
    6.7875   -4.2167    0.0000 C   0  0  0  0  0  0           0  0  0
    7.8875   -3.3042    0.0000 O   0  0  0  0  0  0           0  0  0
    7.8417   -5.4792    0.0000 C   0  0  0  0  0  0           0  0  0
    8.3667   -6.1167    0.0000 F   0  0  0  0  0  0           0  0  0
    6.5000   -4.9792    0.0000 C   0  0  0  0  0  0           0  0  0
    7.6000   -4.0667    0.0000 C   0  0  0  0  0  0           0  0  0
    8.1250   -4.7042    0.0000 C   0  0  0  0  0  0           0  0  0
    7.0167   -5.6167    0.0000 C   0  0  0  0  0  0           0  0  0
  2 11  1  0     0  0
  3  5  1  0     0  0
  4  3  1  0     0  0
  5  7  1  0     0  0
  6  1  1  0     0  0
  7 21  1  0     0  0
  8  2  1  0     0  0
  9  1  2  0     0  0
 10  1  2  0     0  0
 11 19  2  0     0  0
 12  1  1  0     0  0
 13  3  1  0     0  0
 14  2  2  0     0  0
 15  4  2  0     0  0
 16  7  2  0     0  0
 17  6  1  0     0  0
 18  6  2  0     0  0
 19 18  1  0     0  0
 20 17  2  0     0  0
 21  8  1  0     0  0
 22 13  1  0     0  0
 23  4  1  0     0  0
 24 28  2  0     0  0
 25 24  1  0     0  0
 26 22  1  0     0  0
 27 22  2  0     0  0
 28 27  1  0     0  0
 29 26  2  0     0  0
 11 20  1  0     0  0
 24 29  1  0     0  0
M  END