
  SciTegic07111213582D

 21 23  0  0  0  0            999 V2000
   -2.4348   -0.7085    0.0000 C   0  0
   -1.7203   -1.1210    0.0000 C   0  0
   -1.0058   -0.7085    0.0000 C   0  0
   -1.0058    0.1165    0.0000 C   0  0
   -1.7203    0.5290    0.0000 C   0  0
   -2.4348    0.1165    0.0000 C   0  0
   -0.2914   -1.1210    0.0000 C   0  0
    0.4231   -0.7085    0.0000 C   0  0
    0.4231    0.1165    0.0000 C   0  0
    1.1376    0.5290    0.0000 C   0  0
    1.1376    1.3540    0.0000 C   0  0
    1.8521    1.7665    0.0000 C   0  0
    2.5665    1.3540    0.0000 C   0  0
    2.5665    0.5290    0.0000 C   0  0
    1.8521    0.1165    0.0000 C   0  0
   -0.2914    0.5290    0.0000 O   0  0
   -0.2914   -1.9460    0.0000 O   0  0
    3.2810    1.7665    0.0000 O   0  0
    1.1376   -1.1210    0.0000 O   0  0
   -3.1492    0.5290    0.0000 O   0  0
   -1.7203   -1.9460    0.0000 O   0  0
  1  2  2  0
  1  6  1  0
  2  3  1  0
  2 21  1  0
  3  4  2  0
  3  7  1  0
  4  5  1  0
  4 16  1  0
  5  6  2  0
  6 20  1  0
  8  7  1  0
  7 17  2  0
  8  9  2  0
  8 19  1  0
  9 10  1  0
  9 16  1  0
 10 11  2  0
 10 15  1  0
 11 12  1  0
 12 13  2  0
 13 14  1  0
 13 18  1  0
 14 15  2  0
M  END