
  SciTegic06051315212D

 14 14  0  0  0  0            999 V2000
    2.4171   -2.6331    0.0000 C   0  0
    2.4160   -3.4527    0.0000 C   0  0
    3.1240   -3.8616    0.0000 C   0  0
    3.8337   -3.4522    0.0000 C   0  0
    3.8309   -2.6295    0.0000 C   0  0
    3.1222   -2.2243    0.0000 C   0  0
    3.1198   -1.4071    0.0000 S   0  0
    3.8263   -0.9964    0.0000 N   0  0
    2.3236   -1.6137    0.0000 O   0  0
    2.7033   -0.6934    0.0000 O   0  0
    4.5370   -2.2183    0.0000 F   0  0
    1.7093   -2.2247    0.0000 F   0  0
    1.7080   -3.8607    0.0000 F   0  0
    4.5420   -3.8597    0.0000 F   0  0
  1  2  2  0
  2  3  1  0
  3  4  2  0
  4  5  1  0
  5  6  2  0
  6  1  1  0
  6  7  1  0
  7  8  1  0
  7  9  2  0
  7 10  2  0
  5 11  1  0
  1 12  1  0
  2 13  1  0
  4 14  1  0
M  END