
          11280714522D 1   1.00000     0.00000     0

 40 44  0     0  0            999 V2000
    0.0042   -1.6542    0.0000 C   0  0  0  0  0  0           0  0  0
    0.6667   -1.1792    0.0000 N   0  0  0  0  0  0           0  0  0
   -0.2625   -0.9792    0.0000 C   0  0  3  0  0  0           0  0  0
    1.3375   -1.6542    0.0000 C   0  0  0  0  0  0           0  0  0
   -0.1125   -0.2917    0.0000 C   0  0  3  0  0  0           0  0  0
   -1.5708   -1.0667    0.0000 C   0  0  3  0  0  0           0  0  0
   -1.2333   -1.8542    0.0000 O   0  0  0  0  0  0           0  0  0
    0.2542   -2.4417    0.0000 O   0  0  0  0  0  0           0  0  0
   -0.8958   -0.5167    0.0000 C   0  0  3  0  0  0           0  0  0
    1.0792   -2.4417    0.0000 C   0  0  0  0  0  0           0  0  0
    0.3667   -0.7667    0.0000 C   0  0  0  0  0  0           0  0  0
    2.0042   -1.3792    0.0000 C   0  0  0  0  0  0           0  0  0
    0.8375   -0.2917    0.0000 C   0  0  0  0  0  0           0  0  0
    6.2417   -1.4167    0.0000 C   0  0  0  0  0  0           0  0  0
   -1.4958    1.1833    0.0000 C   0  0  0  0  0  0           0  0  0
    6.9542   -1.8250    0.0000 N   0  0  0  0  0  0           0  0  0
   -1.8458   -0.5292    0.0000 C   0  0  0  0  0  0           0  0  0
   -1.3708   -0.0417    0.0000 C   0  0  0  0  0  0           0  0  0
    0.4042    0.4083    0.0000 C   0  0  0  0  0  0           0  0  0
    2.0917   -0.6292    0.0000 O   0  0  0  0  0  0           0  0  0
    6.2375   -0.5917    0.0000 O   0  0  0  0  0  0           0  0  0
   -2.2958    0.9708    0.0000 O   0  0  0  0  0  0           0  0  0
    2.6542   -1.7917    0.0000 N   0  0  0  0  0  0           0  0  0
   -0.1833    0.9958    0.0000 C   0  0  0  0  0  0           0  0  0
   -0.9000    0.5875    0.0000 C   0  0  0  0  0  0           0  0  0
   -1.2750    1.9833    0.0000 O   0  0  0  0  0  0           0  0  0
    7.6667   -1.4042    0.0000 C   0  0  3  0  0  0           0  0  0
    5.5292   -1.8292    0.0000 C   0  0  0  0  0  0           0  0  0
    1.6667   -0.2667    0.0000 C   0  0  0  0  0  0           0  0  0
    0.8042    1.1458    0.0000 C   0  0  0  0  0  0           0  0  0
    3.3917   -1.4250    0.0000 C   0  0  0  0  0  0           0  0  0
    8.3792   -1.8125    0.0000 C   0  0  0  0  0  0           0  0  0
    7.6542   -0.5875    0.0000 C   0  0  0  0  0  0           0  0  0
    4.8167   -1.4167    0.0000 C   0  0  0  0  0  0           0  0  0
    4.1042   -1.8375    0.0000 C   0  0  0  0  0  0           0  0  0
    2.0625    0.4583    0.0000 C   0  0  0  0  0  0           0  0  0
    1.6292    1.1583    0.0000 C   0  0  0  0  0  0           0  0  0
    8.3667   -0.1667    0.0000 C   0  0  0  0  0  0           0  0  0
    9.0875   -1.4000    0.0000 C   0  0  0  0  0  0           0  0  0
    9.0792   -0.5792    0.0000 C   0  0  0  0  0  0           0  0  0
  2  1  2  0     0  0
  3  1  1  0     0  0
  4  2  1  0     0  0
  5  3  1  0     0  0
  6  3  1  0     0  0
  7  6  1  0     0  0
  8  1  1  0     0  0
  9  5  1  0     0  0
 10  8  1  0     0  0
 11  5  1  0     0  0
 12  4  1  0     0  0
 13 11  1  0     0  0
 14 28  1  0     0  0
 15 25  1  0     0  0
 16 14  1  0     0  0
 17  6  1  0     0  0
 18 17  1  0     0  0
 19 13  2  0     0  0
 20 12  2  0     0  0
 21 14  2  0     0  0
 22 15  2  0     0  0
 23 12  1  0     0  0
 24 19  1  0     0  0
 25 24  1  0     0  0
 26 15  1  0     0  0
 27 16  1  0     0  0
 28 34  1  0     0  0
 29 13  1  0     0  0
 30 19  1  0     0  0
 31 23  1  0     0  0
 32 27  1  0     0  0
 33 27  1  0     0  0
 34 35  1  0     0  0
 35 31  1  0     0  0
 36 29  2  0     0  0
 37 36  1  0     0  0
 38 33  1  0     0  0
 39 32  1  0     0  0
 40 38  1  0     0  0
 10  4  2  0     0  0
  9  7  1  0     0  0
  9 18  1  0     0  0
 30 37  2  0     0  0
 40 39  1  0     0  0
M  END