
  Mrv0541 04051115152D          

 32 36  0  0  0  0            999 V2000
    2.4816    1.7348    0.0000 C   0  0  0  0  0  0  0  0  0  0  0  0
    3.1960    2.1473    0.0000 Cl  0  0  0  0  0  0  0  0  0  0  0  0
    2.4816    0.9098    0.0000 C   0  0  0  0  0  0  0  0  0  0  0  0
    1.7671    0.4973    0.0000 C   0  0  0  0  0  0  0  0  0  0  0  0
    1.0526    0.9098    0.0000 C   0  0  0  0  0  0  0  0  0  0  0  0
    1.0526    1.7348    0.0000 C   0  0  0  0  0  0  0  0  0  0  0  0
    1.7671    2.1473    0.0000 C   0  0  0  0  0  0  0  0  0  0  0  0
    0.2680    1.9897    0.0000 N   0  0  0  0  0  0  0  0  0  0  0  0
   -0.2169    1.3223    0.0000 C   0  0  0  0  0  0  0  0  0  0  0  0
   -1.0419    1.3223    0.0000 C   0  0  0  0  0  0  0  0  0  0  0  0
   -1.4544    0.6078    0.0000 O   0  0  0  0  0  0  0  0  0  0  0  0
   -1.4544    2.0368    0.0000 O   0  0  0  0  0  0  0  0  0  0  0  0
    0.2680    0.6549    0.0000 C   0  0  0  0  0  0  0  0  0  0  0  0
    0.0131   -0.1298    0.0000 C   0  0  0  0  0  0  0  0  0  0  0  0
    0.4980   -0.7972    0.0000 C   0  0  0  0  0  0  0  0  0  0  0  0
    1.3230   -0.7972    0.0000 C   0  0  0  0  0  0  0  0  0  0  0  0
    1.7355   -0.0827    0.0000 C   0  0  0  0  0  0  0  0  0  0  0  0
    2.5605   -0.0827    0.0000 C   0  0  0  0  0  0  0  0  0  0  0  0
    2.9730   -0.7972    0.0000 C   0  0  0  0  0  0  0  0  0  0  0  0
    2.5605   -1.5117    0.0000 C   0  0  0  0  0  0  0  0  0  0  0  0
    1.7355   -1.5117    0.0000 C   0  0  0  0  0  0  0  0  0  0  0  0
    0.0131   -1.4646    0.0000 N   0  0  0  0  0  0  0  0  0  0  0  0
   -0.7716   -1.2097    0.0000 C   0  0  0  0  0  0  0  0  0  0  0  0
   -0.7716   -0.3847    0.0000 N   0  0  0  0  0  0  0  0  0  0  0  0
   -1.4390    0.1002    0.0000 C   0  0  0  0  0  0  0  0  0  0  0  0
   -2.1927   -0.2353    0.0000 C   0  0  0  0  0  0  0  0  0  0  0  0
   -2.2789   -1.0558    0.0000 C   0  0  0  0  0  0  0  0  0  0  0  0
   -3.0326   -1.3914    0.0000 C   0  0  0  0  0  0  0  0  0  0  0  0
   -3.7000   -0.9065    0.0000 C   0  0  0  0  0  0  0  0  0  0  0  0
   -4.4537   -1.2420    0.0000 Cl  0  0  0  0  0  0  0  0  0  0  0  0
   -3.6138   -0.0860    0.0000 C   0  0  0  0  0  0  0  0  0  0  0  0
   -2.8601    0.2496    0.0000 C   0  0  0  0  0  0  0  0  0  0  0  0
  1  2  1  0  0  0  0
  1  3  2  0  0  0  0
  1  7  1  0  0  0  0
  3  4  1  0  0  0  0
  4  5  2  0  0  0  0
  5  6  1  0  0  0  0
 13  5  1  0  0  0  0
  6  7  2  0  0  0  0
  6  8  1  0  0  0  0
  9  8  1  0  0  0  0
 10  9  1  0  0  0  0
 13  9  2  0  0  0  0
 10 11  1  0  0  0  0
 10 12  2  0  0  0  0
 13 14  1  0  0  0  0
 14 15  2  0  0  0  0
 14 24  1  0  0  0  0
 15 16  1  0  0  0  0
 15 22  1  0  0  0  0
 16 17  2  0  0  0  0
 16 21  1  0  0  0  0
 17 18  1  0  0  0  0
 18 19  2  0  0  0  0
 19 20  1  0  0  0  0
 20 21  2  0  0  0  0
 23 22  2  0  0  0  0
 23 24  1  0  0  0  0
 25 24  1  0  0  0  0
 25 26  1  0  0  0  0
 26 27  2  0  0  0  0
 26 32  1  0  0  0  0
 27 28  1  0  0  0  0
 28 29  2  0  0  0  0
 29 30  1  0  0  0  0
 29 31  1  0  0  0  0
 31 32  2  0  0  0  0
M  END