
  Mrv0541 04051115152D          

 20 22  0  0  0  0            999 V2000
   -2.0309    0.0109    0.0000 O   0  0  0  0  0  0  0  0  0  0  0  0
   -1.3164    0.4234    0.0000 C   0  0  0  0  0  0  0  0  0  0  0  0
   -1.3164    1.2484    0.0000 C   0  0  0  0  0  0  0  0  0  0  0  0
   -0.6019    1.6609    0.0000 C   0  0  0  0  0  0  0  0  0  0  0  0
   -0.6019    2.4859    0.0000 O   0  0  0  0  0  0  0  0  0  0  0  0
    0.1126    1.2484    0.0000 C   0  0  0  0  0  0  0  0  0  0  0  0
    0.8270    1.6609    0.0000 C   0  0  0  0  0  0  0  0  0  0  0  0
    0.8270    2.4859    0.0000 C   0  0  0  0  0  0  0  0  0  0  0  0
    0.1126    0.4234    0.0000 C   0  0  0  0  0  0  0  0  0  0  0  0
   -0.6019    0.0109    0.0000 C   0  0  0  0  0  0  0  0  0  0  0  0
   -0.6019   -0.8141    0.0000 C   0  0  0  0  0  0  0  0  0  0  0  0
   -1.2694   -1.2990    0.0000 N   0  0  0  0  0  0  0  0  0  0  0  0
   -1.0144   -2.0836    0.0000 N   0  0  0  0  0  0  0  0  0  0  0  0
   -0.1894   -2.0836    0.0000 C   0  0  0  0  0  0  0  0  0  0  0  0
    0.0655   -1.2990    0.0000 C   0  0  0  0  0  0  0  0  0  0  0  0
    0.8501   -1.0441    0.0000 C   0  0  0  0  0  0  0  0  0  0  0  0
    1.1051   -0.2594    0.0000 C   0  0  0  0  0  0  0  0  0  0  0  0
    1.9301   -0.2594    0.0000 N   0  0  0  0  0  0  0  0  0  0  0  0
    2.1850   -1.0441    0.0000 C   0  0  0  0  0  0  0  0  0  0  0  0
    1.5176   -1.5290    0.0000 N   0  0  0  0  0  0  0  0  0  0  0  0
  2  1  1  0  0  0  0
  2  3  2  0  0  0  0
 10  2  1  0  0  0  0
  3  4  1  0  0  0  0
  4  5  1  0  0  0  0
  4  6  2  0  0  0  0
  6  7  1  0  0  0  0
  9  6  1  0  0  0  0
  7  8  1  0  0  0  0
 10  9  2  0  0  0  0
 11 10  1  0  0  0  0
 11 12  2  0  0  0  0
 15 11  1  0  0  0  0
 12 13  1  0  0  0  0
 14 13  1  0  0  0  0
 15 14  2  0  0  0  0
 15 16  1  0  0  0  0
 16 17  2  0  0  0  0
 16 20  1  0  0  0  0
 17 18  1  0  0  0  0
 19 18  1  0  0  0  0
 19 20  2  0  0  0  0
M  END