
  SciTegic11201309402D

 27 30  0  0  1  0            999 V2000
    5.6866   -3.4423    0.0000 C   0  0  2  0  0  0
    5.2845   -4.1558    0.0000 C   0  0  2  0  0  0
    4.4542   -4.1558    0.0000 C   0  0  1  0  0  0
    7.5115   -1.7773    0.0000 S   0  0
    6.5039   -3.6109    0.0000 O   0  0
    5.8293   -4.7612    0.0000 O   0  0
    4.0347   -3.4423    0.0000 C   0  0  2  0  0  0
    6.5818   -4.4153    0.0000 C   0  0
    3.8963   -4.7785    0.0000 O   0  0
    3.1439   -4.4368    0.0000 C   0  0
    3.2303   -3.6239    0.0000 O   0  0
    5.2671   -2.7244    0.0000 O   0  0
    6.0888   -2.7244    0.0000 C   0  0
    6.9147   -2.7244    0.0000 O   0  0
    4.4412   -2.7244    0.0000 C   0  0
    6.4780   -1.2628    0.0000 O   0  0
    7.5029   -0.7568    0.0000 O   0  0
    8.3332   -1.7773    0.0000 N   0  0
    7.3731   -4.2163    0.0000 C   0  0
    6.7893   -5.2196    0.0000 C   0  0
    2.9752   -5.2412    0.0000 C   0  0
    2.4260   -4.0261    0.0000 C   0  0
    1.8206   -4.5839    0.0000 C   0  0
    2.1449   -5.3234    0.0000 C   0  0
    5.2845   -4.9808    0.0000 H   0  0
    4.7907   -4.9090    0.0000 H   0  0
    3.5428   -2.7799    0.0000 H   0  0
  2  1  1  0
  3  2  1  0
  4 14  1  0
  1  5  1  0
  2  6  1  0
  7 15  1  0
  8  5  1  0
  3  9  1  0
 10  9  1  0
  7 11  1  0
 12  1  1  0
  1 13  1  6
 14 13  1  0
 15 12  1  0
 16  4  2  0
 17  4  2  0
 18  4  1  0
 19  8  1  0
 20  8  1  0
 10 21  1  0
 10 22  1  0
 23 22  1  0
 24 21  1  0
  8  6  1  0
  7  3  1  0
 10 11  1  0
 24 23  1  0
  2 25  1  6
  3 26  1  1
  7 27  1  1
M  END