
  SciTegic03161210572D

 42 44  0  0  0  0            999 V2000
    1.6982  -13.8482    0.0000 F   0  0
    2.1145  -14.5641    0.0000 C   0  0
    2.5264  -13.8457    0.0000 F   0  0
    1.8064  -15.6879    0.0000 F   0  0
    1.3986  -14.9762    0.0000 C   0  0
    0.9861  -15.6853    0.0000 F   0  0
    0.2705  -13.8482    0.0000 F   0  0
    0.6868  -14.5641    0.0000 C   0  0
    1.0987  -13.8457    0.0000 F   0  0
    0.3788  -15.6879    0.0000 F   0  0
   -0.0292  -14.9762    0.0000 C   0  0
   -0.4415  -15.6853    0.0000 F   0  0
   -1.1571  -13.8482    0.0000 F   0  0
   -0.7409  -14.5641    0.0000 C   0  0
   -0.3290  -13.8457    0.0000 F   0  0
   -1.0489  -15.6879    0.0000 F   0  0
   -1.4568  -14.9762    0.0000 C   0  0
   -1.8693  -15.6853    0.0000 F   0  0
   -2.8803  -14.9803    0.0000 N   0  0
   -2.1667  -14.5682    0.0000 C   0  0
   -2.1667  -13.7441    0.0000 O   0  0
    2.8295  -14.9803    0.0000 C   0  0
    3.5432  -14.5682    0.0000 N   0  0
    2.8295  -15.8044    0.0000 O   0  0
    4.2570  -14.9803    0.0000 O   0  0
   -3.5941  -14.5682    0.0000 C   0  0
   -3.5891  -13.7431    0.0000 C   0  0
   -4.3020  -13.3310    0.0000 C   0  0
   -5.0167  -13.7432    0.0000 C   0  0
   -5.0141  -14.5716    0.0000 C   0  0
   -4.3006  -14.9798    0.0000 C   0  0
   -5.7310  -13.3320    0.0000 C   0  0
   -5.9211  -12.5260    0.0000 C   0  0
   -6.7440  -12.4534    0.0000 N   0  0
   -7.0707  -13.2118    0.0000 N   0  0
   -6.4435  -13.7530    0.0000 N   0  0
   -6.4473  -14.5787    0.0000 C   0  0
   -7.1561  -14.9913    0.0000 C   0  0
   -7.1570  -15.8146    0.0000 C   0  0
   -6.4400  -16.2265    0.0000 C   0  0
   -5.7229  -15.8089    0.0000 C   0  0
   -5.7273  -14.9869    0.0000 C   0  0
 14 13  1  0
  2 22  1  0
 15 14  1  0
 22 23  1  0
  9  8  1  0
 22 24  2  0
  5  4  1  0
 23 25  1  0
  6  5  1  0
 19 26  1  0
 17 16  1  0
 26 27  2  0
 18 17  1  0
 27 28  1  0
 28 29  2  0
 11 10  1  0
 29 30  1  0
 12 11  1  0
 30 31  2  0
 31 26  1  0
  2  1  1  0
 29 32  1  0
 32 33  2  0
  3  2  1  0
 19 20  1  0
 20 17  1  0
  8  7  1  0
 33 34  1  0
 34 35  2  0
 35 36  1  0
 36 32  1  0
 20 21  2  0
 17 14  1  0
 37 38  2  0
 14 11  1  0
 38 39  1  0
 11  8  1  0
 39 40  2  0
  8  5  1  0
 40 41  1  0
  5  2  1  0
 41 42  2  0
 42 37  1  0
 36 37  1  0
M  END