
  SciTegic06051313522D

 31 34  0  0  0  0            999 V2000
   18.9110   -1.8551    0.0000 C   0  0
   18.9098   -2.6824    0.0000 C   0  0
   19.6246   -3.0953    0.0000 C   0  0
   20.3411   -2.6820    0.0000 C   0  0
   20.3382   -1.8514    0.0000 C   0  0
   19.6228   -1.4423    0.0000 C   0  0
   21.0511   -1.4362    0.0000 C   0  0
   21.7672   -1.8460    0.0000 C   0  0
   21.7669   -2.6687    0.0000 C   0  0
   22.4821   -3.0784    0.0000 C   0  0
   23.1960   -2.6632    0.0000 C   0  0
   23.1902   -1.8339    0.0000 C   0  0
   22.4745   -1.4279    0.0000 N   0  0
   21.0562   -3.0933    0.0000 O   0  0
   21.0575   -3.9183    0.0000 C   0  0
   21.7726   -4.3297    0.0000 C   0  0
   21.7693   -5.1520    0.0000 C   0  0
   22.4835   -5.5633    0.0000 C   0  0
   23.1984   -5.1496    0.0000 C   0  0
   23.1944   -4.3204    0.0000 C   0  0
   22.4795   -3.9128    0.0000 C   0  0
   21.0542   -5.5635    0.0000 F   0  0
   23.9140   -5.5601    0.0000 Cl  0  0
   18.1964   -1.4427    0.0000 Cl  0  0
   23.9038   -1.4156    0.0000 C   0  0
   24.6213   -1.8228    0.0000 N   0  0
   23.8978   -0.5906    0.0000 O   0  0
   24.7101   -2.6424    0.0000 C   0  0
   25.5183   -2.8080    0.0000 C   0  0
   25.9256   -2.0905    0.0000 C   0  0
   25.3690   -1.4816    0.0000 C   0  0
  1  2  2  0
  2  3  1  0
  3  4  2  0
  4  5  1  0
  5  6  2  0
  6  1  1  0
  5  7  1  0
  7  8  1  0
  8  9  2  0
  9 10  1  0
 10 11  2  0
 11 12  1  0
 12 13  2  0
 13  8  1  0
  4 14  1  0
 14 15  1  0
 15 16  1  0
 16 17  2  0
 17 18  1  0
 18 19  2  0
 19 20  1  0
 20 21  2  0
 21 16  1  0
 17 22  1  0
 19 23  1  0
  1 24  1  0
 25 26  1  0
 25 27  2  0
 12 25  1  0
 26 28  1  0
 28 29  1  0
 29 30  1  0
 30 31  1  0
 31 26  1  0
M  END