
  SciTegic11201309402D

 30 32  0  0  1  0            999 V2000
    5.9792   -2.3667    0.0000 N   0  0
    5.2667   -2.7750    0.0000 C   0  0
    9.5542   -2.7917    0.0000 C   0  0
    7.4125   -2.3667    0.0000 C   0  0
    8.8417   -2.3750    0.0000 C   0  0  2  0  0  0
    8.1250   -2.7875    0.0000 N   0  0
    6.6917   -2.7792    0.0000 C   0  0
   10.2667   -2.3792    0.0000 C   0  0
    8.8417   -1.5500    0.0000 C   0  0
    5.2667   -3.6000    0.0000 O   0  0
    4.5625   -2.3625    0.0000 C   0  0  2  0  0  0
    0.9875   -3.5917    0.0000 N   0  0
    7.4167   -1.5417    0.0000 O   0  0
    9.5625   -0.3125    0.0000 N   0  0
   10.2667   -1.5542    0.0000 O   0  0
    3.8417   -2.7750    0.0000 C   0  0
    5.9875   -1.5417    0.0000 C   0  0
   10.9792   -2.7917    0.0000 O   0  0
    3.1292   -2.3625    0.0000 C   0  0
    9.5542   -1.1375    0.0000 C   0  0
    5.2750   -1.1250    0.0000 C   0  0
    2.4167   -2.7750    0.0000 C   0  0
    0.9917   -2.7667    0.0000 C   0  0
    1.7042   -4.0042    0.0000 C   0  0
    8.1292   -1.1375    0.0000 C   0  0
    8.8500    0.1000    0.0000 C   0  0
    4.5542   -1.5375    0.0000 C   0  0
    1.7042   -2.3542    0.0000 C   0  0
    2.4167   -3.5917    0.0000 C   0  0
    8.1292   -0.3125    0.0000 C   0  0
  2  1  1  0
  5  3  1  6
  4  7  1  0
  5  6  1  0
  6  4  1  0
  7  1  1  0
  8  3  1  0
  5  9  1  0
 10  2  2  0
 11  2  1  0
 12 24  1  0
 13  4  2  0
 14 20  1  0
 15  8  2  0
 11 16  1  6
 17  1  1  0
 18  8  1  0
 19 16  1  0
 20  9  2  0
 21 17  1  0
 22 19  1  0
 23 28  1  0
 24 29  1  0
 25  9  1  0
 26 30  1  0
 27 21  1  0
 28 22  1  0
 29 22  1  0
 30 25  2  0
 11 27  1  0
 12 23  1  0
 26 14  2  0
M  END