
  CDK    9/16/09,10:4

 22 24  0  0  0  0  0  0  0  0999 V2000
   12.1458   -2.8417    0.0000 C   0  0  0  0  0  0  0  0  0  0  0  0
   12.8603   -2.4292    0.0000 N   0  0  0  0  0  0  0  0  0  0  0  0
   11.4314   -2.4292    0.0000 N   0  0  0  0  0  0  0  0  0  0  0  0
   12.1458   -3.6667    0.0000 S   0  0  0  0  0  0  0  0  0  0  0  0
   10.7169   -2.8417    0.0000 C   0  0  0  0  0  0  0  0  0  0  0  0
   10.0030   -2.4260    0.0000 C   0  0  0  0  0  0  0  0  0  0  0  0
    9.2890   -2.8378    0.0000 C   0  0  0  0  0  0  0  0  0  0  0  0
    9.2886   -3.6637    0.0000 C   0  0  0  0  0  0  0  0  0  0  0  0
   10.0081   -4.0761    0.0000 C   0  0  0  0  0  0  0  0  0  0  0  0
   10.7191   -3.6619    0.0000 C   0  0  0  0  0  0  0  0  0  0  0  0
   13.5748   -2.8417    0.0000 C   0  0  0  0  0  0  0  0  0  0  0  0
   13.5722   -3.6677    0.0000 C   0  0  0  0  0  0  0  0  0  0  0  0
   14.2859   -4.0802    0.0000 C   0  0  0  0  0  0  0  0  0  0  0  0
   15.0013   -3.6676    0.0000 C   0  0  0  0  0  0  0  0  0  0  0  0
   14.9987   -2.8383    0.0000 C   0  0  0  0  0  0  0  0  0  0  0  0
   14.2844   -2.4297    0.0000 C   0  0  0  0  0  0  0  0  0  0  0  0
   15.7164   -4.0819    0.0000 C   0  0  0  0  0  0  0  0  0  0  0  0
   16.4328   -3.6685    0.0000 C   0  0  0  0  0  0  0  0  0  0  0  0
   16.4300   -2.8380    0.0000 C   0  0  0  0  0  0  0  0  0  0  0  0
   15.7146   -2.4289    0.0000 C   0  0  0  0  0  0  0  0  0  0  0  0
    8.5746   -4.0772    0.0000 O   0  0  0  0  0  0  0  0  0  0  0  0
    7.8596   -3.6656    0.0000 C   0  0  0  0  0  0  0  0  0  0  0  0
  2 11  1  0  0  0  0 
  5  6  2  0  0  0  0 
 11 12  2  0  0  0  0 
  1  2  1  0  0  0  0 
 12 13  1  0  0  0  0 
  6  7  1  0  0  0  0 
 13 14  2  0  0  0  0 
  1  4  2  0  0  0  0 
 14 15  1  0  0  0  0 
  7  8  2  0  0  0  0 
 15 16  2  0  0  0  0 
 16 11  1  0  0  0  0 
 14 17  1  0  0  0  0 
  8  9  1  0  0  0  0 
 17 18  2  0  0  0  0 
  3  5  1  0  0  0  0 
 18 19  1  0  0  0  0 
  9 10  2  0  0  0  0 
 19 20  2  0  0  0  0 
 20 15  1  0  0  0  0 
 10  5  1  0  0  0  0 
  8 21  1  0  0  0  0 
  1  3  1  0  0  0  0 
 21 22  1  0  0  0  0 
M  END