
  CDK    9/16/09,9:57

 23 24  0  0  0  0  0  0  0  0999 V2000
   -0.6691  -22.9089    0.0000 C   0  0  0  0  0  0  0  0  0  0  0  0
   -0.6404  -23.7340    0.0000 C   0  0  0  0  0  0  0  0  0  0  0  0
    0.0828  -24.1231    0.0000 N   0  0  0  0  0  0  0  0  0  0  0  0
    0.7857  -23.6915    0.0000 C   0  0  0  0  0  0  0  0  0  0  0  0
    1.5130  -24.0806    0.0000 N   0  0  0  0  0  0  0  0  0  0  0  0
    0.7611  -22.8664    0.0000 N   0  0  0  0  0  0  0  0  0  0  0  0
    2.2159  -23.6489    0.0000 C   0  0  0  0  0  0  0  0  0  0  0  0
    2.9433  -24.0381    0.0000 C   0  0  0  0  0  0  0  0  0  0  0  0
    2.1913  -22.8237    0.0000 O   0  0  0  0  0  0  0  0  0  0  0  0
   -1.3924  -22.5155    0.0000 C   0  0  0  0  0  0  0  0  0  0  0  0
   -1.4170  -21.6904    0.0000 C   0  0  0  0  0  0  0  0  0  0  0  0
   -1.0044  -20.4230    0.0000 C   0  0  0  0  0  0  0  0  0  0  0  0
   -1.8298  -20.4220    0.0000 N   0  0  0  0  0  0  0  0  0  0  0  0
   -2.0865  -21.2064    0.0000 C   0  0  0  0  0  0  0  0  0  0  0  0
   -0.7539  -21.2081    0.0000 N   0  0  0  0  0  0  0  0  0  0  0  0
    3.6461  -23.6063    0.0000 C   0  0  0  0  0  0  0  0  0  0  0  0
    4.3735  -23.9955    0.0000 C   0  0  0  0  0  0  0  0  0  0  0  0
    5.0722  -23.5638    0.0000 C   0  0  0  0  0  0  0  0  0  0  0  0
    5.7955  -23.9570    0.0000 C   0  0  0  0  0  0  0  0  0  0  0  0
    6.4963  -23.5247    0.0000 C   0  0  0  0  0  0  0  0  0  0  0  0
    6.4759  -22.6991    0.0000 C   0  0  0  0  0  0  0  0  0  0  0  0
    5.7487  -22.3077    0.0000 C   0  0  0  0  0  0  0  0  0  0  0  0
    5.0417  -22.7419    0.0000 C   0  0  0  0  0  0  0  0  0  0  0  0
  4  6  2  0  0  0  0 
  1  2  1  0  0  0  0 
  5  7  1  0  0  0  0 
  3  4  1  0  0  0  0 
 13 14  1  0  0  0  0 
 14 11  2  0  0  0  0 
 11 15  1  0  0  0  0 
 15 12  2  0  0  0  0 
  7  8  1  0  0  0  0 
  8 16  1  0  0  0  0 
 16 17  1  0  0  0  0 
  7  9  2  0  0  0  0 
 17 18  1  0  0  0  0 
 18 19  1  0  0  0  0 
  4  5  1  0  0  0  0 
  1 10  1  0  0  0  0 
  2  3  1  0  0  0  0 
 10 11  1  0  0  0  0 
 12 13  1  0  0  0  0 
 18 23  1  0  0  0  0 
 19 20  1  0  0  0  0 
 20 21  1  0  0  0  0 
 21 22  1  0  0  0  0 
 22 23  1  0  0  0  0 
M  END