
          05080814032D 1   1.00000     0.00000     0

 29 33  0     1  0            999 V2000
    8.8819  -22.5575    0.0000 C   0  0  0  0  0  0           0  0  0
    8.8819  -23.3870    0.0000 C   0  0  0  0  0  0           0  0  0
    9.5963  -23.7995    0.0000 N   0  0  3  0  0  0           0  0  0
   10.3153  -23.3870    0.0000 C   0  0  0  0  0  0           0  0  0
   10.3153  -22.5575    0.0000 C   0  0  0  0  0  0           0  0  0
    9.5963  -22.1405    0.0000 O   0  0  0  0  0  0           0  0  0
    9.5952  -24.6245    0.0000 C   0  0  0  0  0  0           0  0  0
   10.3090  -25.0379    0.0000 C   0  0  0  0  0  0           0  0  0
   10.3078  -25.8629    0.0000 C   0  0  0  0  0  0           0  0  0
   11.0216  -26.2763    0.0000 O   0  0  0  0  0  0           0  0  0
   11.7367  -25.8648    0.0000 C   0  0  0  0  0  0           0  0  0
   12.4479  -26.2796    0.0000 C   0  0  0  0  0  0           0  0  0
   12.4452  -24.6296    0.0000 C   0  0  0  0  0  0           0  0  0
   11.7336  -25.0429    0.0000 C   0  0  0  0  0  0           0  0  0
   13.1640  -25.0430    0.0000 C   0  0  0  0  0  0           0  0  0
   13.1624  -25.8710    0.0000 C   0  0  0  0  0  0           0  0  0
   14.5949  -25.0457    0.0000 C   0  0  0  0  0  0           0  0  0
   13.8780  -24.6281    0.0000 C   0  0  1  0  0  0           0  0  0
   14.5933  -25.8739    0.0000 N   0  0  3  0  0  0           0  0  0
   13.8745  -26.2797    0.0000 C   0  0  2  0  0  0           0  0  0
   14.0385  -27.0887    0.0000 C   0  0  0  0  0  0           0  0  0
   14.8586  -27.1829    0.0000 C   0  0  0  0  0  0           0  0  0
   15.2013  -26.4320    0.0000 C   0  0  0  0  0  0           0  0  0
   13.8785  -23.8031    0.0000 C   0  0  0  0  0  0           0  0  0
   13.1578  -26.6868    0.0000 H   0  0  0  0  0  0           0  0  0
   14.5430  -23.3164    0.0000 C   0  0  0  0  0  0           0  0  0
   14.2886  -22.5316    0.0000 C   0  0  0  0  0  0           0  0  0
   13.4636  -22.5312    0.0000 N   0  0  0  0  0  0           0  0  0
   13.2084  -23.3157    0.0000 N   0  0  0  0  0  0           0  0  0
 13 14  2  0     0  0
 14 11  1  0     0  0
 15 16  2  0     0  0
  3  7  1  0     0  0
  1  2  1  0     0  0
  7  8  1  0     0  0
  1  6  1  0     0  0
 15 18  1  0     0  0
 16 20  1  0     0  0
 19 17  1  0     0  0
 17 18  1  0     0  0
 19 20  1  0     0  0
  8  9  1  0     0  0
  2  3  1  0     0  0
  9 10  1  0     0  0
  3  4  1  0     0  0
 10 11  1  0     0  0
 20 21  1  0     0  0
 21 22  1  0     0  0
 22 23  1  0     0  0
 23 19  1  0     0  0
  4  5  1  0     0  0
 18 24  1  6     0  0
 11 12  2  0     0  0
 20 25  1  1     0  0
 24 26  2  0     0  0
 12 16  1  0     0  0
  5  6  1  0     0  0
 15 13  1  0     0  0
 26 27  1  0     0  0
 27 28  2  0     0  0
 28 29  1  0     0  0
 29 24  1  0     0  0
M  END