
          11280715342D 1   1.00000     0.00000     0

 15 15  0     0  0            999 V2000
    2.7417   -2.7750    0.0000 S   0  0  3  0  0  0           0  0  0
    3.4542   -3.1875    0.0000 N   0  0  3  0  0  0           0  0  0
    5.6000   -3.6000    0.0000 C   0  0  0  0  0  0           0  0  0
    4.8792   -3.1875    0.0000 C   0  0  0  0  0  0           0  0  0
    2.7417   -1.9500    0.0000 O   0  0  0  0  0  0           0  0  0
    2.0292   -3.1875    0.0000 O   0  0  0  0  0  0           0  0  0
    7.0292   -3.6000    0.0000 N   0  0  3  0  0  0           0  0  0
    2.0250   -2.3625    0.0000 C   0  0  0  0  0  0           0  0  0
    6.3125   -4.0042    0.0000 C   0  0  0  0  0  0           0  0  0
    4.1667   -2.7750    0.0000 C   0  0  0  0  0  0           0  0  0
    7.7792   -3.9292    0.0000 C   0  0  0  0  0  0           0  0  0
    7.1167   -2.7792    0.0000 C   0  0  0  0  0  0           0  0  0
    3.4542   -4.0042    0.0000 C   0  0  0  0  0  0           0  0  0
    7.9167   -2.6042    0.0000 C   0  0  0  0  0  0           0  0  0
    8.3292   -3.3042    0.0000 C   0  0  0  0  0  0           0  0  0
  2  1  1  0     0  0
  3  4  3  0     0  0
  4 10  1  0     0  0
  5  1  2  0     0  0
  6  1  2  0     0  0
  7  9  1  0     0  0
  8  1  1  0     0  0
  9  3  1  0     0  0
 10  2  1  0     0  0
 11  7  1  0     0  0
 12  7  1  0     0  0
 13  2  1  0     0  0
 14 12  1  0     0  0
 15 11  1  0     0  0
 15 14  1  0     0  0
M  END