
  SciTegic11201309402D

 66 67  0  0  1  0            999 V2000
   11.4042   -1.6667    0.0000 N   0  0
   10.0417   -4.0667    0.0000 C   0  0
   11.4125   -2.4625    0.0000 C   0  0
   -1.0000   -6.5542    0.0000 C   0  0
   10.7292   -3.6667    0.0000 N   0  0
   10.0417   -4.8667    0.0000 C   0  0  1  0  0  0
   -0.3083   -6.1500    0.0000 N   0  0
   12.0917   -1.2542    0.0000 C   0  0  2  0  0  0
   10.7167   -2.8667    0.0000 C   0  0  2  0  0  0
    2.4667   -8.5167    0.0000 C   0  0
    9.3542   -5.2667    0.0000 N   0  0
   12.0875   -0.4625    0.0000 C   0  0
    1.0667   -6.1292    0.0000 C   0  0
   -2.3833   -6.5625    0.0000 N   0  0
    9.3625   -6.0667    0.0000 C   0  0
   -3.0750   -6.1667    0.0000 C   0  0
   -1.6958   -6.1542    0.0000 C   0  0  1  0  0  0
    0.3792   -6.5417    0.0000 C   0  0  2  0  0  0
    2.4625   -7.7167    0.0000 N   0  0
   10.0292   -2.4667    0.0000 C   0  0
    9.3250   -3.6625    0.0000 O   0  0
   12.1042   -2.8542    0.0000 O   0  0
   -0.9958   -7.3500    0.0000 O   0  0
    9.6042   -0.3375    0.0000 C   0  0
    9.6125   -1.7625    0.0000 C   0  0
   10.0167   -1.0500    0.0000 C   0  0
   11.3917   -0.0667    0.0000 O   0  0
    1.0625   -5.3292    0.0000 O   0  0
   -3.0833   -5.3667    0.0000 O   0  0
   10.0542   -6.4625    0.0000 O   0  0
    1.7792   -8.9167    0.0000 N   0  0
    8.7792   -0.3417    0.0000 C   0  0
    1.7625   -6.5292    0.0000 N   0  0
    3.1667   -8.9125    0.0000 N   0  0
    8.3667   -1.0542    0.0000 C   0  0
   12.7875   -1.6542    0.0000 C   0  0  2  0  0  0
   12.7750   -0.0542    0.0000 O   0  0
    8.7792   -1.7667    0.0000 C   0  0
   10.7417   -5.2542    0.0000 C   0  0
   -0.3375   -2.9542    0.0000 N   0  0
   11.4292   -4.8542    0.0000 O   0  0
    8.6792   -6.4667    0.0000 C   0  0
   -3.7625   -6.5750    0.0000 C   0  0
   -1.7000   -5.3625    0.0000 C   0  0
    0.3875   -7.3375    0.0000 C   0  0
   10.0167    0.3750    0.0000 C   0  0
    1.0875   -8.5292    0.0000 C   0  0
    2.4542   -6.1167    0.0000 C   0  0
   -0.3333   -3.7542    0.0000 C   0  0
    8.3625    0.3750    0.0000 C   0  0
   12.7917   -2.4542    0.0000 C   0  0
   13.4750   -1.2417    0.0000 C   0  0
    1.0792   -7.7292    0.0000 C   0  0
    7.9792   -6.0792    0.0000 C   0  0
   -1.0125   -4.9542    0.0000 C   0  0
    3.1417   -6.5167    0.0000 C   0  0
   -1.0208   -4.1542    0.0000 C   0  0
    5.9125   -6.4917    0.0000 C   0  0
    6.6000   -6.0917    0.0000 C   0  0
    7.2917   -6.4792    0.0000 C   0  0
    3.8292   -6.1125    0.0000 C   0  0
    4.5292   -6.5042    0.0000 C   0  0
    5.2167   -6.1042    0.0000 C   0  0
   13.4875   -2.8417    0.0000 C   0  0
    9.6042    1.0958    0.0000 C   0  0
    8.7750    1.0958    0.0000 C   0  0
  2  5  1  0
  3  1  1  0
  4  7  1  0
  9  5  1  6
  6  2  1  0
 18  7  1  6
  8  1  1  6
  9  3  1  0
 10 31  2  0
  6 11  1  6
 12  8  1  0
 13 33  1  0
 17 14  1  1
 15 11  1  0
 16 14  1  0
 17  4  1  0
 18 13  1  0
 19 10  1  0
  9 20  1  0
 21  2  2  0
 22  3  2  0
 23  4  2  0
 24 26  2  0
 25 20  1  0
 26 25  1  0
 27 12  2  0
 28 13  2  0
 29 16  2  0
 30 15  2  0
 31 47  1  0
 32 35  2  0
 33 48  1  0
 34 10  1  0
 35 38  1  0
  8 36  1  0
 37 12  1  0
 38 25  2  0
  6 39  1  0
 40 49  1  0
 41 39  1  0
 42 15  1  0
 43 16  1  0
 17 44  1  0
 18 45  1  0
 46 24  1  0
 47 53  1  0
 48 56  1  0
 49 57  1  0
 50 32  1  0
 51 36  1  0
 36 52  1  1
 53 45  1  0
 54 42  1  0
 55 44  1  0
 56 61  1  0
 57 55  1  0
 58 59  1  0
 59 60  1  0
 60 54  1  0
 61 62  1  0
 62 63  1  0
 63 58  1  0
 64 51  1  0
 65 46  2  0
 66 50  2  0
 24 32  1  0
 65 66  1  0
M  END