
          11280714582D 1   1.00000     0.00000     0

 31 33  0     1  0            999 V2000
    1.7167   -4.6792    0.0000 S   0  0  3  0  0  0           0  0  0
    3.9417   -4.6792    0.0000 S   0  0  3  0  0  0           0  0  0
    0.9375   -2.7750    0.0000 C   0  0  2  0  0  0           0  0  0
    0.9292   -3.3750    0.0000 C   0  0  0  0  0  0           0  0  0
    1.8750   -4.1000    0.0000 N   0  0  3  0  0  0           0  0  0
    1.4542   -2.4750    0.0000 N   0  0  3  0  0  0           0  0  0
    1.4542   -3.6792    0.0000 C   0  0  2  0  0  0           0  0  0
    0.4167   -2.4750    0.0000 C   0  0  0  0  0  0           0  0  0
    2.3167   -4.6792    0.0000 O   0  0  0  0  0  0           0  0  0
    1.1167   -4.6750    0.0000 O   0  0  0  0  0  0           0  0  0
    1.9792   -3.3792    0.0000 C   0  0  0  0  0  0           0  0  0
    4.4667   -4.4625    0.0000 O   0  0  0  0  0  0           0  0  0
    3.3417   -5.0542    0.0000 O   0  0  0  0  0  0           0  0  0
    3.4542   -4.2167    0.0000 N   0  0  0  0  0  0           0  0  0
    1.9792   -2.7750    0.0000 C   0  0  0  0  0  0           0  0  0
    0.4167   -1.8667    0.0000 C   0  0  0  0  0  0           0  0  0
    1.4542   -1.8667    0.0000 C   0  0  0  0  0  0           0  0  0
    0.9375   -1.5667    0.0000 C   0  0  0  0  0  0           0  0  0
    2.8750   -4.3667    0.0000 C   0  0  0  0  0  0           0  0  0
    2.4542   -3.9417    0.0000 C   0  0  0  0  0  0           0  0  0
    1.5625   -5.2542    0.0000 C   0  0  0  0  0  0           0  0  0
    4.3167   -5.1792    0.0000 C   0  0  0  0  0  0           0  0  0
   -0.1083   -2.7750    0.0000 C   0  0  0  0  0  0           0  0  0
   -0.1083   -1.5667    0.0000 C   0  0  0  0  0  0           0  0  0
    0.9792   -5.4167    0.0000 C   0  0  0  0  0  0           0  0  0
    4.0792   -5.7375    0.0000 C   0  0  0  0  0  0           0  0  0
   -0.6208   -2.4750    0.0000 C   0  0  0  0  0  0           0  0  0
    0.8292   -5.9917    0.0000 C   0  0  0  0  0  0           0  0  0
   -0.6208   -1.8750    0.0000 C   0  0  0  0  0  0           0  0  0
    1.0375   -4.1792    0.0000 H   0  0  0  0  0  0           0  0  0
    0.4167   -3.0667    0.0000 H   0  0  0  0  0  0           0  0  0
  2 14  1  0     0  0
  3  4  1  0     0  0
  4  7  1  0     0  0
  5  1  1  0     0  0
  6 15  1  0     0  0
  7  5  1  0     0  0
  8  3  1  0     0  0
  9  1  2  0     0  0
 10  1  2  0     0  0
 11  7  1  0     0  0
 12  2  2  0     0  0
 13  2  2  0     0  0
 14 19  1  0     0  0
 15 11  1  0     0  0
 16  8  1  0     0  0
 17  6  1  0     0  0
 18 17  1  0     0  0
 19 20  1  0     0  0
 20  5  1  0     0  0
 21  1  1  0     0  0
 22  2  1  0     0  0
 23  8  2  0     0  0
 24 16  2  0     0  0
 25 21  1  0     0  0
 26 22  1  0     0  0
 27 23  1  0     0  0
 28 25  1  0     0  0
 29 27  2  0     0  0
  7 30  1  6     0  0
  3 31  1  6     0  0
  3  6  1  0     0  0
 18 16  1  0     0  0
 29 24  1  0     0  0
M  END