
          11280714572D 1   1.00000     0.00000     0

 20 22  0     0  0            999 V2000
    2.2125   -5.1250    0.0000 N   0  0  3  0  0  0           0  0  0
    1.6917   -4.8250    0.0000 C   0  0  0  0  0  0           0  0  0
    3.2500   -5.7250    0.0000 N   0  0  3  0  0  0           0  0  0
    1.1667   -5.1250    0.0000 N   0  0  0  0  0  0           0  0  0
    1.6917   -4.2167    0.0000 C   0  0  0  0  0  0           0  0  0
    2.2125   -5.7250    0.0000 C   0  0  0  0  0  0           0  0  0
    2.7292   -4.8167    0.0000 C   0  0  0  0  0  0           0  0  0
    3.7667   -6.0250    0.0000 C   0  0  0  0  0  0           0  0  0
    2.7292   -6.0167    0.0000 C   0  0  0  0  0  0           0  0  0
    3.2500   -5.1167    0.0000 C   0  0  0  0  0  0           0  0  0
    2.2042   -3.9167    0.0000 Cl  0  0  0  0  0  0           0  0  0
    3.7667   -6.6250    0.0000 C   0  0  0  0  0  0           0  0  0
    0.6542   -4.8250    0.0000 C   0  0  0  0  0  0           0  0  0
    1.1667   -3.9167    0.0000 C   0  0  0  0  0  0           0  0  0
    3.2417   -6.9167    0.0000 C   0  0  0  0  0  0           0  0  0
    4.2875   -6.9167    0.0000 C   0  0  0  0  0  0           0  0  0
    0.6542   -4.2250    0.0000 C   0  0  0  0  0  0           0  0  0
    4.2875   -7.5167    0.0000 C   0  0  0  0  0  0           0  0  0
    3.2417   -7.5167    0.0000 C   0  0  0  0  0  0           0  0  0
    3.7667   -7.8250    0.0000 C   0  0  0  0  0  0           0  0  0
  2  1  1  0     0  0
  3 10  1  0     0  0
  4  2  2  0     0  0
  5  2  1  0     0  0
  6  1  1  0     0  0
  7  1  1  0     0  0
  8  3  1  0     0  0
  9  6  1  0     0  0
 10  7  1  0     0  0
 11  5  1  0     0  0
 12  8  1  0     0  0
 13  4  1  0     0  0
 14  5  2  0     0  0
 15 12  2  0     0  0
 16 12  1  0     0  0
 17 14  1  0     0  0
 18 16  2  0     0  0
 19 15  1  0     0  0
 20 18  1  0     0  0
  3  9  1  0     0  0
 13 17  2  0     0  0
 20 19  2  0     0  0
M  END