
          11280714522D 1   1.00000     0.00000     0

 33 37  0     0  0            999 V2000
    6.4542   -5.3042    0.0000 C   0  0  0  0  0  0           0  0  0
    7.1625   -4.8917    0.0000 C   0  0  0  0  0  0           0  0  0
    5.7375   -4.8917    0.0000 O   0  0  0  0  0  0           0  0  0
    6.4542   -6.1292    0.0000 C   0  0  0  0  0  0           0  0  0
    5.0250   -5.3125    0.0000 C   0  0  0  0  0  0           0  0  0
    5.0250   -6.1375    0.0000 C   0  0  0  0  0  0           0  0  0
    5.7375   -6.5500    0.0000 C   0  0  0  0  0  0           0  0  0
    7.1542   -4.0667    0.0000 C   0  0  0  0  0  0           0  0  0
    2.1500   -1.2000    0.0000 N   0  0  0  0  0  0           0  0  0
    4.3125   -4.9000    0.0000 C   0  0  0  0  0  0           0  0  0
    7.8792   -5.3000    0.0000 C   0  0  0  0  0  0           0  0  0
    7.1667   -6.5417    0.0000 C   0  0  0  0  0  0           0  0  0
    2.1417   -0.3792    0.0000 C   0  0  0  0  0  0           0  0  0
    2.8792   -2.4292    0.0000 C   0  0  0  0  0  0           0  0  0
    3.5917   -2.8292    0.0000 C   0  0  0  0  0  0           0  0  0
    5.7417   -7.3750    0.0000 O   0  0  0  0  0  0           0  0  0
    2.8750   -1.6042    0.0000 C   0  0  0  0  0  0           0  0  0
    4.3125   -4.0667    0.0000 C   0  0  0  0  0  0           0  0  0
    6.4417   -3.6542    0.0000 O   0  0  0  0  0  0           0  0  0
    7.8792   -6.1292    0.0000 C   0  0  0  0  0  0           0  0  0
    2.8542    0.0458    0.0000 C   0  0  0  0  0  0           0  0  0
    3.6042   -3.6542    0.0000 C   0  0  0  0  0  0           0  0  0
    3.5667   -0.3625    0.0000 C   0  0  0  0  0  0           0  0  0
    7.8667   -3.6500    0.0000 O   0  0  0  0  0  0           0  0  0
    3.5792   -1.1875    0.0000 C   0  0  0  0  0  0           0  0  0
    3.6000   -5.3125    0.0000 C   0  0  0  0  0  0           0  0  0
    2.8792   -4.8917    0.0000 C   0  0  0  0  0  0           0  0  0
    1.4250    0.0250    0.0000 C   0  0  0  0  0  0           0  0  0
    8.6000   -6.5375    0.0000 C   0  0  0  0  0  0           0  0  0
    2.8875   -4.0667    0.0000 C   0  0  0  0  0  0           0  0  0
    2.8542    0.8625    0.0000 C   0  0  0  0  0  0           0  0  0
    1.4167    0.8583    0.0000 C   0  0  0  0  0  0           0  0  0
    2.1292    1.2708    0.0000 C   0  0  0  0  0  0           0  0  0
  2  1  1  0     0  0
  3  1  1  0     0  0
  4  1  2  0     0  0
  5  3  1  0     0  0
  6  7  1  0     0  0
  7  4  1  0     0  0
  8  2  1  0     0  0
  9 17  2  0     0  0
 10  5  1  0     0  0
 11  2  2  0     0  0
 12  4  1  0     0  0
 13  9  1  0     0  0
 14 15  2  0     0  0
 15 22  1  0     0  0
 16  7  2  0     0  0
 17 14  1  0     0  0
 18 10  1  0     0  0
 19  8  2  0     0  0
 20 12  2  0     0  0
 21 23  1  0     0  0
 22 18  2  0     0  0
 23 25  2  0     0  0
 24  8  1  0     0  0
 25 17  1  0     0  0
 26 10  2  0     0  0
 27 26  1  0     0  0
 28 13  1  0     0  0
 29 20  1  0     0  0
 30 27  2  0     0  0
 31 21  1  0     0  0
 32 28  2  0     0  0
 33 31  2  0     0  0
 11 20  1  0     0  0
  5  6  2  0     0  0
 22 30  1  0     0  0
 21 13  2  0     0  0
 33 32  1  0     0  0
M  END