
  CDK    9/16/09,9:51

 28 32  0  0  0  0  0  0  0  0999 V2000
   14.2507   -3.1642    0.0000 C   0  0  0  0  0  0  0  0  0  0  0  0
   14.9618   -3.5802    0.0000 C   0  0  0  0  0  0  0  0  0  0  0  0
   15.6791   -3.1715    0.0000 C   0  0  0  0  0  0  0  0  0  0  0  0
   15.6807   -2.3426    0.0000 C   0  0  0  0  0  0  0  0  0  0  0  0
   16.3917   -3.5866    0.0000 F   0  0  0  0  0  0  0  0  0  0  0  0
   14.2575   -2.3401    0.0000 C   0  0  0  0  0  0  0  0  0  0  0  0
   14.9658   -1.9270    0.0000 C   0  0  0  0  0  0  0  0  0  0  0  0
   14.7917   -1.1258    0.0000 O   0  0  0  0  0  0  0  0  0  0  0  0
   13.9759   -1.0437    0.0000 N   0  0  0  0  0  0  0  0  0  0  0  0
   13.6458   -1.7942    0.0000 C   0  0  0  0  0  0  0  0  0  0  0  0
   11.4971   -3.0167    0.0000 N   0  0  0  0  0  0  0  0  0  0  0  0
   12.2116   -3.4356    0.0000 C   0  0  0  0  0  0  0  0  0  0  0  0
   12.9242   -3.0278    0.0000 C   0  0  0  0  0  0  0  0  0  0  0  0
   12.9296   -2.2028    0.0000 C   0  0  0  0  0  0  0  0  0  0  0  0
   12.2161   -1.7873    0.0000 C   0  0  0  0  0  0  0  0  0  0  0  0
   11.4973   -2.1968    0.0000 C   0  0  0  0  0  0  0  0  0  0  0  0
    8.6354   -4.6684    0.0000 C   0  0  0  0  0  0  0  0  0  0  0  0
    9.3542   -4.2561    0.0000 C   0  0  0  0  0  0  0  0  0  0  0  0
    9.3542   -3.4269    0.0000 C   0  0  0  0  0  0  0  0  0  0  0  0
    8.6354   -3.0100    0.0000 C   0  0  0  0  0  0  0  0  0  0  0  0
    8.6342   -2.1853    0.0000 O   0  0  0  0  0  0  0  0  0  0  0  0
    7.9213   -4.2561    0.0000 C   0  0  0  0  0  0  0  0  0  0  0  0
    7.9213   -3.4223    0.0000 C   0  0  0  0  0  0  0  0  0  0  0  0
    7.1283   -3.1646    0.0000 C   0  0  0  0  0  0  0  0  0  0  0  0
    6.6380   -3.8391    0.0000 C   0  0  0  0  0  0  0  0  0  0  0  0
    7.1282   -4.5137    0.0000 O   0  0  0  0  0  0  0  0  0  0  0  0
   10.0688   -3.0153    0.0000 C   0  0  0  0  0  0  0  0  0  0  0  0
   10.7825   -3.4284    0.0000 C   0  0  0  0  0  0  0  0  0  0  0  0
 11 16  1  0  0  0  0 
 12 13  1  0  0  0  0 
 13 14  1  0  0  0  0 
 14 15  1  0  0  0  0 
 15 16  1  0  0  0  0 
 14 10  1  0  0  0  0 
  3  4  1  0  0  0  0 
  4  7  2  0  0  0  0 
  7  8  1  0  0  0  0 
  8  9  1  0  0  0  0 
 23 20  1  0  0  0  0 
 22 17  1  0  0  0  0 
 17 18  1  0  0  0  0 
 18 19  1  0  0  0  0 
 19 20  1  0  0  0  0 
  9 10  2  0  0  0  0 
 20 21  2  0  0  0  0 
 22 23  2  0  0  0  0 
 10  6  1  0  0  0  0 
  1  2  1  0  0  0  0 
 11 12  1  0  0  0  0 
  3  5  1  0  0  0  0 
  6  7  1  0  0  0  0 
 23 24  1  0  0  0  0 
 24 25  2  0  0  0  0 
 25 26  1  0  0  0  0 
 26 22  1  0  0  0  0 
  6  1  2  0  0  0  0 
 19 27  1  0  0  0  0 
  2  3  2  0  0  0  0 
 27 28  1  0  0  0  0 
 28 11  1  0  0  0  0 
M  END