
  SciTegic11201309402D

 66 71  0  0  1  0            999 V2000
   -0.8583   -2.7042    0.0000 C   0  0  2  0  0  0
    3.0000   -4.5500    0.0000 N   0  0
    2.7875   -3.7542    0.0000 C   0  0
   -0.8583   -1.8792    0.0000 C   0  0  2  0  0  0
   -2.2458   -2.2417    0.0000 C   0  0
   -1.6583   -1.6667    0.0000 N   0  0
   -1.5750   -3.1167    0.0000 O   0  0
    1.2792   -3.1292    0.0000 C   0  0  1  0  0  0
    3.5375   -1.4792    0.0000 C   0  0
   -0.1458   -1.4667    0.0000 C   0  0  2  0  0  0
    0.5542   -4.3625    0.0000 C   0  0
    2.7042   -5.3167    0.0000 C   0  0
    1.2750   -3.9542    0.0000 C   0  0  2  0  0  0
    3.5292   -0.6542    0.0000 C   0  0  1  0  0  0
    2.0000   -1.8917    0.0000 C   0  0  1  0  0  0
    1.9917   -3.5417    0.0000 O   0  0
    1.9917   -2.7167    0.0000 C   0  0  1  0  0  0
   -0.1375   -0.6417    0.0000 C   0  0
    4.2417   -0.2375    0.0000 C   0  0  1  0  0  0
   -0.1583   -3.9417    0.0000 O   0  0
    2.8250   -1.8917    0.0000 O   0  0
    1.2875   -1.4792    0.0000 C   0  0  2  0  0  0
   -0.1500   -3.1167    0.0000 C   0  0  2  0  0  0
    4.2542   -1.8875    0.0000 O   0  0
    3.3417   -5.8417    0.0000 O   0  0
    4.2417    0.5875    0.0000 N   0  0
    0.5792   -0.2375    0.0000 C   0  0  1  0  0  0
    1.2917   -0.6542    0.0000 C   0  0
   -1.8708   -0.8667    0.0000 C   0  0
    4.9625   -0.6500    0.0000 C   0  0
    3.8292   -4.5917    0.0000 C   0  0  2  0  0  0
    3.3667   -3.1667    0.0000 O   0  0
    5.7042    0.6833    0.0000 C   0  0
   -2.5000    1.5208    0.0000 C   0  0
   -3.0708   -2.2417    0.0000 O   0  0
    4.9500    1.0083    0.0000 C   0  0
    5.7917   -0.1417    0.0000 C   0  0
    6.3667    1.1708    0.0000 C   0  0
    0.5542   -5.1875    0.0000 O   0  0
    1.9042   -5.5292    0.0000 O   0  0
    4.9625   -1.4750    0.0000 C   0  0  1  0  0  0
   -0.8458   -0.2292    0.0000 O   0  0
   -3.2958    1.7375    0.0000 C   0  0
    4.0375   -5.3917    0.0000 C   0  0
   -2.2875    0.7250    0.0000 C   0  0
    2.9417   -0.0667    0.0000 O   0  0
   -1.2750   -3.4167    0.0000 C   0  0
   -3.8833    1.1500    0.0000 C   0  0
    1.8667   -0.8917    0.0000 O   0  0
   -2.8750    0.1458    0.0000 C   0  0
   -2.6625   -0.6500    0.0000 C   0  0
   -1.9208    2.1083    0.0000 Cl  0  0
   -0.8583   -1.0542    0.0000 C   0  0
   -3.5083    2.5333    0.0000 F   0  0
    1.9875   -4.3667    0.0000 C   0  0
   -3.6708    0.3583    0.0000 C   0  0
    2.7042   -3.1375    0.0000 C   0  0
    2.1125   -1.4792    0.0000 C   0  0
    3.5167    0.9958    0.0000 C   0  0
   -0.8708   -3.5292    0.0000 C   0  0
    0.5792    0.5875    0.0000 C   0  0
    4.2375   -3.8792    0.0000 C   0  0
    5.6792   -1.8875    0.0000 C   0  0
    1.8667   -0.0667    0.0000 C   0  0
   -0.8708   -4.3542    0.0000 C   0  0
   -0.9905   -0.8880    0.0000 H   0  0
  2  3  1  0
  3 16  1  0
  4  1  1  0
  5  7  1  0
  4  6  1  0
  1  7  1  0
  8 13  1  0
 21  9  1  0
 10  4  1  0
 11 20  1  0
 12  2  1  0
 13 11  1  0
 14  9  1  0
 15 17  1  0
  8 16  1  1
 17  8  1  0
 18 10  1  0
 19 14  1  0
 20 23  1  0
 15 21  1  6
 22 28  1  0
 23  1  1  0
 24  9  1  0
 25 12  1  0
 19 26  1  1
 27 18  1  0
 28 27  1  0
 29  6  1  0
 30 41  1  0
 31  2  1  0
 32  3  2  0
 33 36  1  0
 34 45  1  0
 35  5  2  0
 36 26  1  0
 37 33  1  0
 38 33  1  0
 39 11  2  0
 40 12  2  0
 41 24  1  0
 42 18  2  0
 43 48  1  0
 44 31  1  0
 45 50  2  0
 14 46  1  6
  1 47  1  6
 48 56  2  0
 22 49  1  0
 50 51  1  0
 51 29  1  0
 52 34  1  0
 10 53  1  6
 54 43  1  0
 13 55  1  1
 56 50  1  0
 17 57  1  1
 22 58  1  1
 59 26  1  0
 23 60  1  1
 27 61  1  6
 31 62  1  1
 41 63  1  1
 64 49  1  0
 65 60  1  0
  5  6  1  0
 15 22  1  0
 43 34  2  0
 44 25  1  0
 30 19  1  0
 37 38  1  0
  4 66  1  1
M  END