
  SciTegic10311316212D

 36 38  0  0  0  0            999 V2000
   11.3314  -21.3873    0.0000 P   0  0
   10.5142  -21.3873    0.0000 O   0  0
   10.9228  -22.0950    0.0000 O   0  0
   12.0391  -21.7959    0.0000 C   0  0
   12.7468  -21.3873    0.0000 C   0  0
   11.3314  -20.5701    0.0000 O   0  0
   13.4545  -21.7959    0.0000 C   0  0
   14.1623  -21.3873    0.0000 N   0  0
   14.8700  -21.7959    0.0000 C   0  0
   14.1623  -20.5701    0.0000 O   0  0
   14.8700  -22.6131    0.0000 O   0  0
   12.0391  -22.6131    0.0000 C   0  0
   11.3291  -23.0198    0.0000 C   0  0
   11.3288  -23.8363    0.0000 C   0  0
   12.0370  -24.2457    0.0000 C   0  0
   12.7471  -23.8327    0.0000 C   0  0
   12.7439  -23.0176    0.0000 C   0  0
   13.4562  -24.2388    0.0000 Cl  0  0
   12.0381  -25.0629    0.0000 Cl  0  0
   15.5777  -21.3873    0.0000 C   0  0
   16.2842  -21.8001    0.0000 C   0  0
   16.9914  -21.3922    0.0000 C   0  0
   16.9918  -20.5741    0.0000 C   0  0
   16.2792  -20.1657    0.0000 C   0  0
   15.5748  -20.5760    0.0000 C   0  0
   16.2819  -22.6173    0.0000 N   0  0
   16.9884  -23.0279    0.0000 C   0  0
   16.9826  -23.8441    0.0000 C   0  0
   17.6883  -24.2546    0.0000 C   0  0
   18.3982  -23.8479    0.0000 C   0  0
   18.3979  -23.0265    0.0000 C   0  0
   17.6916  -22.6197    0.0000 C   0  0
   19.1053  -22.6174    0.0000 C   0  0
   19.8133  -23.0255    0.0000 F   0  0
   19.1047  -21.8002    0.0000 F   0  0
   19.8107  -22.2045    0.0000 F   0  0
  2  1  1  0
  1  3  1  0
  4  5  1  0
  4  1  1  0
  1  6  2  0
  5  7  1  0
  7  8  1  0
  8  9  1  0
  8 10  1  0
  9 11  2  0
  4 12  1  0
 12 13  2  0
 13 14  1  0
 14 15  2  0
 15 16  1  0
 16 17  2  0
 17 12  1  0
 16 18  1  0
 15 19  1  0
  9 20  1  0
 20 21  2  0
 21 22  1  0
 22 23  2  0
 23 24  1  0
 24 25  2  0
 25 20  1  0
 21 26  1  0
 26 27  1  0
 27 28  2  0
 28 29  1  0
 29 30  2  0
 30 31  1  0
 31 32  2  0
 32 27  1  0
 31 33  1  0
 33 34  1  0
 33 35  1  0
 33 36  1  0
M  END