
  Mrv0541 04051115152D          

 26 27  0  0  0  0            999 V2000
   -1.9979    0.5306    0.0000 C   0  0  0  0  0  0  0  0  0  0  0  0
   -2.7124    0.1181    0.0000 C   0  0  0  0  0  0  0  0  0  0  0  0
   -3.4269    0.5306    0.0000 C   0  0  0  0  0  0  0  0  0  0  0  0
   -3.4269    1.3556    0.0000 C   0  0  0  0  0  0  0  0  0  0  0  0
   -2.7124    1.7681    0.0000 C   0  0  0  0  0  0  0  0  0  0  0  0
   -1.9979    1.3556    0.0000 C   0  0  0  0  0  0  0  0  0  0  0  0
   -1.2834    0.1181    0.0000 N   0  0  0  0  0  0  0  0  0  0  0  0
   -1.2834   -0.7069    0.0000 C   0  0  0  0  0  0  0  0  0  0  0  0
   -0.5690   -1.1194    0.0000 C   0  0  0  0  0  0  0  0  0  0  0  0
   -0.5690   -1.9444    0.0000 C   0  0  0  0  0  0  0  0  0  0  0  0
   -1.2834   -2.3569    0.0000 C   0  0  0  0  0  0  0  0  0  0  0  0
   -1.9979   -1.9444    0.0000 C   0  0  0  0  0  0  0  0  0  0  0  0
   -1.9979   -1.1194    0.0000 C   0  0  0  0  0  0  0  0  0  0  0  0
    0.1455   -0.7069    0.0000 C   0  0  0  0  0  0  0  0  0  0  0  0
    0.8600   -1.1194    0.0000 N   0  0  0  0  0  0  0  0  0  0  0  0
    0.1455    0.1181    0.0000 O   0  0  0  0  0  0  0  0  0  0  0  0
    1.5744   -0.7069    0.0000 O   0  0  0  0  0  0  0  0  0  0  0  0
    2.2889   -1.1194    0.0000 C   0  0  0  0  0  0  0  0  0  0  0  0
    3.0034   -0.7069    0.0000 C   0  0  1  0  0  0  0  0  0  0  0  0
    3.7179   -1.1194    0.0000 C   0  0  0  0  0  0  0  0  0  0  0  0
    3.0034    0.1181    0.0000 O   0  0  0  0  0  0  0  0  0  0  0  0
    4.4323   -0.7069    0.0000 O   0  0  0  0  0  0  0  0  0  0  0  0
   -4.1413    1.7681    0.0000 I   0  0  0  0  0  0  0  0  0  0  0  0
   -1.2834    1.7681    0.0000 F   0  0  0  0  0  0  0  0  0  0  0  0
   -2.7124   -0.7069    0.0000 F   0  0  0  0  0  0  0  0  0  0  0  0
   -2.7124   -2.3569    0.0000 F   0  0  0  0  0  0  0  0  0  0  0  0
  1  2  2  0  0  0  0
  1  6  1  0  0  0  0
  1  7  1  0  0  0  0
  2  3  1  0  0  0  0
  3  4  2  0  0  0  0
  4  5  1  0  0  0  0
  4 23  1  0  0  0  0
  5  6  2  0  0  0  0
  6 24  1  0  0  0  0
  8  7  1  0  0  0  0
  8  9  2  0  0  0  0
  8 13  1  0  0  0  0
  9 10  1  0  0  0  0
  9 14  1  0  0  0  0
 10 11  2  0  0  0  0
 11 12  1  0  0  0  0
 12 13  2  0  0  0  0
 12 26  1  0  0  0  0
 13 25  1  0  0  0  0
 14 15  1  0  0  0  0
 14 16  2  0  0  0  0
 15 17  1  0  0  0  0
 18 17  1  0  0  0  0
 18 19  1  0  0  0  0
 19 20  1  0  0  0  0
 19 21  1  6  0  0  0
 20 22  1  0  0  0  0
M  END