
          11280715512D 1   1.00000     0.00000     0

 37 40  0     0  0            999 V2000
   -4.9428  -21.6945    0.0000 C   0  0  0  0  0  0           0  0  0
   -4.9440  -22.5218    0.0000 C   0  0  0  0  0  0           0  0  0
   -4.2291  -22.9346    0.0000 C   0  0  0  0  0  0           0  0  0
   -4.2309  -21.2817    0.0000 C   0  0  0  0  0  0           0  0  0
   -3.5108  -22.5189    0.0000 C   0  0  0  0  0  0           0  0  0
   -3.5157  -21.6909    0.0000 C   0  0  0  0  0  0           0  0  0
   -2.8686  -21.1650    0.0000 N   0  0  3  0  0  0           0  0  0
   -2.8546  -23.0334    0.0000 C   0  0  0  0  0  0           0  0  0
   -2.0565  -21.3392    0.0000 C   0  0  0  0  0  0           0  0  0
   -2.0440  -22.8403    0.0000 N   0  0  0  0  0  0           0  0  0
   -1.6917  -22.0855    0.0000 N   0  0  3  0  0  0           0  0  0
   -1.5482  -20.6894    0.0000 O   0  0  0  0  0  0           0  0  0
   -3.0311  -23.8392    0.0000 C   0  0  3  0  0  0           0  0  0
   -0.8667  -22.0782    0.0000 C   0  0  0  0  0  0           0  0  0
   -0.4480  -22.7889    0.0000 C   0  0  0  0  0  0           0  0  0
    0.3770  -22.7816    0.0000 N   0  0  0  0  0  0           0  0  0
   -0.8540  -23.5071    0.0000 O   0  0  0  0  0  0           0  0  0
   -3.0611  -20.3627    0.0000 C   0  0  0  0  0  0           0  0  0
   -2.4626  -19.7950    0.0000 C   0  0  0  0  0  0           0  0  0
   -2.6551  -18.9928    0.0000 C   0  0  3  0  0  0           0  0  0
   -1.6717  -20.0294    0.0000 O   0  0  0  0  0  0           0  0  0
   -2.8748  -18.1906    0.0000 C   0  0  0  0  0  0           0  0  0
   -1.8561  -18.7875    0.0000 C   0  0  0  0  0  0           0  0  0
   -3.4524  -19.2048    0.0000 C   0  0  0  0  0  0           0  0  0
    0.7958  -23.4923    0.0000 C   0  0  0  0  0  0           0  0  0
    0.3878  -24.2081    0.0000 C   0  0  0  0  0  0           0  0  0
    0.8060  -24.9184    0.0000 C   0  0  0  0  0  0           0  0  0
    1.6317  -24.9115    0.0000 C   0  0  0  0  0  0           0  0  0
    2.0376  -24.1883    0.0000 C   0  0  0  0  0  0           0  0  0
    1.6171  -23.4811    0.0000 C   0  0  0  0  0  0           0  0  0
    2.8625  -24.1781    0.0000 N   0  0  0  0  0  0           0  0  0
    3.2660  -23.4586    0.0000 C   0  0  0  0  0  0           0  0  0
   -3.8148  -24.0888    0.0000 C   0  0  0  0  0  0           0  0  0
   -3.9924  -24.8908    0.0000 C   0  0  0  0  0  0           0  0  0
   -3.3853  -25.4499    0.0000 C   0  0  0  0  0  0           0  0  0
   -2.5976  -25.2013    0.0000 C   0  0  0  0  0  0           0  0  0
   -2.4171  -24.3937    0.0000 C   0  0  0  0  0  0           0  0  0
  7 18  1  0     0  0
  7  9  1  0     0  0
 18 19  1  0     0  0
  4  1  1  0     0  0
 19 20  1  0     0  0
  8 10  2  0     0  0
 19 21  2  0     0  0
 20 22  1  0     0  0
  9 11  1  0     0  0
 20 23  1  0     0  0
 10 11  1  0     0  0
 20 24  1  0     0  0
  2  3  1  0     0  0
 16 25  1  0     0  0
  9 12  2  0     0  0
 25 26  2  0     0  0
  5  6  1  0     0  0
 26 27  1  0     0  0
  8 13  1  0     0  0
 27 28  2  0     0  0
  3  5  2  0     0  0
 28 29  1  0     0  0
 11 14  1  0     0  0
 29 30  2  0     0  0
 30 25  1  0     0  0
  6  7  1  0     0  0
 29 31  1  0     0  0
 14 15  1  0     0  0
 31 32  1  0     0  0
 13 33  1  0     0  0
  1  2  2  0     0  0
 15 16  1  0     0  0
  5  8  1  0     0  0
 15 17  2  0     0  0
  6  4  2  0     0  0
 13 37  1  0     0  0
 33 34  1  0     0  0
 34 35  1  0     0  0
 35 36  1  0     0  0
 36 37  1  0     0  0
M  END