
  SciTegic04301217482D

103106  0  0  0  0            999 V2000
   -3.6958  -13.4709    0.0000 Na  0  3
   -1.5446  -13.3895    0.0000 S   0  0
   -1.1421  -14.1096    0.0000 O   0  0
   -0.7197  -13.4010    0.0000 O   0  0
    2.0612   -8.0829    0.0000 S   0  0
    2.0624   -7.2579    0.0000 O   0  0
    1.3473   -7.6693    0.0000 O   0  0
   20.5632   -9.6244    0.0000 N   0  0
   20.6495   -8.8004    0.0000 C   0  0
   19.8935   -8.4649    0.0000 N   0  0
   19.7515   -9.7903    0.0000 C   0  0  2  0  0  0
   19.3437   -9.0771    0.0000 C   0  0  1  0  0  0
   18.5374   -9.2477    0.0000 C   0  0  1  0  0  0
   18.4457  -10.0658    0.0000 S   0  0
   19.1995  -10.4030    0.0000 C   0  0
   21.3661   -8.3892    0.0000 O   0  0
   18.9330   -8.3556    0.0000 H   0  0
   20.1634  -10.5035    0.0000 H   0  0
   17.8248   -8.8365    0.0000 C   0  0
   17.8240   -8.0116    0.0000 C   0  0
   17.1093   -7.5997    0.0000 C   0  0
   17.1085   -6.7747    0.0000 C   0  0
   16.3937   -6.3629    0.0000 C   0  0
   16.3929   -5.5379    0.0000 N   0  0
   15.6795   -6.7760    0.0000 O   0  0
   15.6780   -5.1260    0.0000 C   0  0
   14.9673   -5.5400    0.0000 C   0  0
   14.9696   -6.3649    0.0000 O   0  0
   14.2563   -6.7795    0.0000 C   0  0
   14.2587   -7.6044    0.0000 C   0  0
   13.5454   -8.0190    0.0000 O   0  0
   13.5477   -8.8440    0.0000 C   0  0
   12.8343   -9.2585    0.0000 C   0  0
   12.8367  -10.0835    0.0000 O   0  0
   12.1214  -10.5032    0.0000 C   0  0
   11.4022  -10.0988    0.0000 C   0  0
   11.3928   -9.2740    0.0000 O   0  0
   10.6736   -8.8696    0.0000 C   0  0
   10.6641   -8.0447    0.0000 C   0  0
    9.9451   -7.6404    0.0000 C   0  0
    9.9357   -6.8155    0.0000 N   0  0
    9.2353   -8.0610    0.0000 O   0  0
    9.2164   -6.4111    0.0000 C   0  0
    9.2070   -5.5862    0.0000 C   0  0
    8.4879   -5.1819    0.0000 O   0  0
   -0.1186  -13.4118    0.0000 O   0  0
    1.3516  -10.9594    0.0000 O   0  0
    0.6294  -11.3607    0.0000 C   0  0  1  0  0  0
    0.6165  -12.1856    0.0000 C   0  0  2  0  0  0
    1.3258  -12.6092    0.0000 N   0  0
   -0.1057  -12.5869    0.0000 C   0  0  2  0  0  0
   -0.8150  -12.1632    0.0000 C   0  0  1  0  0  0
   -1.5331  -12.5646    0.0000 O   0  0
   -0.8022  -11.3383    0.0000 C   0  0  2  0  0  0
   -0.0799  -10.9371    0.0000 O   0  0
   -1.5073  -10.9148    0.0000 C   0  0
   -1.4944  -10.0899    0.0000 O   0  0
    1.3137  -13.4341    0.0000 C   0  0
    0.5932  -13.8360    0.0000 C   0  0
    0.6374  -10.5319    0.0000 H   0  0
    2.0220  -13.8572    0.0000 O   0  0
    4.2087   -9.3108    0.0000 O   0  0
    3.4929   -9.7233    0.0000 C   0  0  1  0  0  0
    3.4929  -10.5483    0.0000 C   0  0  2  0  0  0
    4.2087  -10.9608    0.0000 O   0  0
    2.7770  -10.9608    0.0000 C   0  0  1  0  0  0
    2.7770  -11.7858    0.0000 O   0  0
    2.0611  -10.5483    0.0000 C   0  0  1  0  0  0
    2.0611   -9.7233    0.0000 C   0  0  2  0  0  0
    2.7770   -9.3108    0.0000 O   0  0
    1.3494   -9.3108    0.0000 C   0  0
    1.3494   -8.4858    0.0000 O   0  0
    0.6346   -9.7227    0.0000 O   0  0
    5.6308   -6.8302    0.0000 O   0  0
    4.9166   -7.2455    0.0000 C   0  0  1  0  0  0
    4.9198   -8.0705    0.0000 C   0  0  2  0  0  0
    5.6372   -8.4802    0.0000 N   0  0
    4.2055   -8.4858    0.0000 C   0  0  2  0  0  0
    3.4880   -8.0761    0.0000 C   0  0  1  0  0  0
    2.7780   -8.4914    0.0000 O   0  0
    3.4848   -7.2511    0.0000 C   0  0  2  0  0  0
    4.1991   -6.8358    0.0000 O   0  0
    2.7715   -6.8414    0.0000 C   0  0
    2.7625   -6.0121    0.0000 O   0  0
    7.7742   -5.5927    0.0000 C   0  0  1  0  0  0
    7.7742   -6.4177    0.0000 C   0  0  2  0  0  0
    8.4901   -6.8302    0.0000 O   0  0
    7.0584   -6.8302    0.0000 C   0  0  1  0  0  0
    7.0584   -7.6552    0.0000 O   0  0
    6.3425   -6.4177    0.0000 C   0  0  1  0  0  0
    6.3425   -5.5927    0.0000 C   0  0  2  0  0  0
    7.0584   -5.1802    0.0000 O   0  0
    5.6308   -5.1802    0.0000 C   0  0
    5.6308   -4.3552    0.0000 O   0  0
    4.9160   -5.5921    0.0000 O   0  0
    5.6411   -9.3052    0.0000 C   0  0
    6.3576   -9.7143    0.0000 O   0  0
    4.9286   -9.7211    0.0000 C   0  0
    3.4875   -8.8959    0.0000 H   0  0
    4.9084   -6.4167    0.0000 H   0  0
    2.0542   -8.9042    0.0000 O   0  5
   -2.2647  -13.7920    0.0000 O   0  5
    0.0792   -8.0334    0.0000 Na  0  3
 48 47  1  0
 48 49  1  0
 49 50  1  6
 49 51  1  0
 51 46  1  1
 51 52  1  0
 52 53  1  1
 52 54  1  0
 54 55  1  0
 54 56  1  1
 56 57  1  0
 48 55  1  0
 13 14  1  0
 50 58  1  0
 28 29  1  0
 58 59  1  0
 14 15  1  0
 48 60  1  6
 29 30  1  0
 58 61  2  0
 15 11  1  0
 30 31  1  0
 31 32  1  0
  9 16  2  0
 32 33  1  0
  6  5  2  0
 33 34  1  0
 12 17  1  6
 34 35  1  0
 11  8  1  0
 63 62  1  0
 63 64  1  0
 64 65  1  6
 64 66  1  0
 66 67  1  1
 66 68  1  0
 68 47  1  6
 68 69  1  0
 69 70  1  0
 69 71  1  1
 71 72  2  0
 63 70  1  0
 35 36  1  0
 71 73  1  0
 11 18  1  6
 36 37  1  0
  8  9  1  0
 37 38  1  0
 13 19  1  1
 38 39  1  0
  9 10  1  0
 39 40  1  0
 19 20  1  0
 40 41  1  0
 10 12  1  0
 75 74  1  0
 75 76  1  0
 76 77  1  6
 76 78  1  0
 78 62  1  1
 78 79  1  0
 79 80  1  1
 79 81  1  0
 81 82  1  0
 81 83  1  1
 83 84  1  0
 75 82  1  0
 40 42  2  0
 20 21  1  0
 41 43  1  0
 11 12  1  0
 43 44  1  0
 21 22  1  0
 44 45  1  0
  5  7  2  0
 22 23  1  0
  3  2  2  0
 85 45  1  1
 85 86  1  0
 86 87  1  6
 86 88  1  0
 88 89  1  1
 88 90  1  0
 90 74  1  6
 90 91  1  0
 91 92  1  0
 91 93  1  1
 93 94  1  0
 85 92  1  0
 23 24  1  0
 93 95  2  0
  2  4  2  0
 77 96  1  0
 23 25  2  0
 96 97  2  0
 96 98  1  0
 24 26  1  0
 63 99  1  6
 75100  1  6
 80  5  1  0
 26 27  1  0
  5101  1  0
 53  2  1  0
 12 13  1  0
  2102  1  0
 27 28  1  0
M  CHG  4   1   1 101  -1 102  -1 103   1
M  END