
          11280714492D 1   1.00000     0.00000     0

 24 27  0     0  0            999 V2000
   12.8750   -6.0917    0.0000 C   0  0  0  0  0  0           0  0  0
   12.1542   -6.5042    0.0000 C   0  0  0  0  0  0           0  0  0
   13.5792   -6.5042    0.0000 C   0  0  0  0  0  0           0  0  0
   12.1542   -7.3250    0.0000 C   0  0  0  0  0  0           0  0  0
   13.5875   -7.3250    0.0000 C   0  0  0  0  0  0           0  0  0
   15.0000   -4.0042    0.0000 N   0  0  3  0  0  0           0  0  0
   12.8667   -7.7417    0.0000 C   0  0  0  0  0  0           0  0  0
   12.8750   -5.2667    0.0000 C   0  0  0  0  0  0           0  0  0
   14.2875   -3.6042    0.0000 C   0  0  3  0  0  0           0  0  0
   13.5875   -4.8542    0.0000 C   0  0  0  0  0  0           0  0  0
   15.0125   -4.8375    0.0000 C   0  0  0  0  0  0           0  0  0
   15.7042   -3.5875    0.0000 C   0  0  0  0  0  0           0  0  0
   11.4542   -6.0917    0.0000 C   0  0  0  0  0  0           0  0  0
   14.2917   -6.0875    0.0000 C   0  0  0  0  0  0           0  0  0
   14.3000   -7.7292    0.0000 C   0  0  0  0  0  0           0  0  0
   11.4417   -7.7292    0.0000 C   0  0  0  0  0  0           0  0  0
   13.5792   -4.0292    0.0000 C   0  0  0  0  0  0           0  0  0
   14.2667   -2.7875    0.0000 C   0  0  0  0  0  0           0  0  0
   15.7042   -2.7625    0.0000 C   0  0  0  0  0  0           0  0  0
   15.0042   -6.4917    0.0000 C   0  0  0  0  0  0           0  0  0
   10.7417   -6.5000    0.0000 C   0  0  0  0  0  0           0  0  0
   10.7375   -7.3167    0.0000 C   0  0  0  0  0  0           0  0  0
   15.0125   -7.3167    0.0000 C   0  0  0  0  0  0           0  0  0
   14.9792   -2.3667    0.0000 C   0  0  0  0  0  0           0  0  0
  2  1  1  0     0  0
  3  1  1  0     0  0
  4  2  1  0     0  0
  5  3  2  0     0  0
  6  9  1  0     0  0
  7  5  1  0     0  0
  8  1  2  0     0  0
  9 17  1  0     0  0
 10  8  1  0     0  0
 11  6  1  0     0  0
 12  6  1  0     0  0
 13  2  2  0     0  0
 14  3  1  0     0  0
 15  5  1  0     0  0
 16  4  2  0     0  0
 17 10  1  0     0  0
 18  9  1  0     0  0
 19 24  1  0     0  0
 20 14  2  0     0  0
 21 13  1  0     0  0
 22 21  2  0     0  0
 23 20  1  0     0  0
 24 18  1  0     0  0
  4  7  1  0     0  0
 15 23  2  0     0  0
 22 16  1  0     0  0
 12 19  1  0     0  0
M  END