
  SciTegic10311217562D

 49 46  0  0  0  0            999 V2000
   -3.6875   -3.7417    0.0000 Na  0  3
    1.1071   -3.8750    0.0000 C   0  0
    1.8228   -3.4646    0.0000 C   0  0
    2.5360   -3.8792    0.0000 N   0  0
    3.2517   -3.4688    0.0000 C   0  0
    3.9650   -3.8834    0.0000 C   0  0
    3.2541   -2.6438    0.0000 O   0  0
    4.6807   -3.4730    0.0000 N   0  0
    5.3939   -3.8876    0.0000 C   0  0
    6.1096   -3.4772    0.0000 O   0  0
    5.3915   -4.7126    0.0000 C   0  0
    2.5411    0.2375    0.0000 S   0  0
    3.2556   -0.1750    0.0000 O   0  5
    2.1210    0.9541    0.0000 O   0  0
    2.9460    0.9541    0.0000 O   0  0
   -0.3167   -1.4083    0.0000 C   0  0  2  0  0  0
   -0.3167   -2.2333    0.0000 C   0  0  1  0  0  0
    0.3953   -2.6417    0.0000 C   0  0  2  0  0  0
    1.1073   -2.2333    0.0000 O   0  0
    1.1073   -1.4083    0.0000 C   0  0  1  0  0  0
    0.3953   -0.9917    0.0000 C   0  0  1  0  0  0
   -1.0324   -0.9979    0.0000 O   0  0
   -1.0306   -2.6469    0.0000 O   0  0
    0.3953   -0.1667    0.0000 O   0  0
    0.3953   -3.4667    0.0000 O   0  0
   -0.3192    0.2458    0.0000 S   0  0
   -1.0336   -0.1667    0.0000 O   0  5
   -0.7375    0.9625    0.0000 O   0  0
    0.0875    0.9625    0.0000 O   0  0
   -1.7456   -1.4125    0.0000 S   0  0
   -2.4613   -1.0021    0.0000 O   0  5
   -2.1625   -2.1250    0.0000 O   0  0
   -1.3375   -2.1250    0.0000 O   0  0
   -1.0294   -3.4719    0.0000 S   0  0
   -1.7432   -3.8854    0.0000 O   0  5
   -0.2084   -3.4708    0.0000 O   0  0
   -0.6250   -4.1833    0.0000 O   0  0
    1.8230   -0.9979    0.0000 C   0  0
    1.8254   -0.1729    0.0000 O   0  0
    4.6831   -2.6480    0.0000 C   0  0
    5.3987   -2.2376    0.0000 C   0  0
    6.1121   -2.6540    0.0000 C   0  0
    6.8273   -2.2443    0.0000 C   0  0
    6.8301   -1.4184    0.0000 C   0  0
    6.1118   -1.0040    0.0000 C   0  0
    5.3996   -1.4161    0.0000 C   0  0
    4.5292   -0.4333    0.0000 Na  0  3
   -1.6250    1.8458    0.0000 Na  0  3
   -3.5000   -0.7125    0.0000 Na  0  3
  6  8  1  0
 24 26  1  0
 12 15  2  0
 26 27  1  0
  4  5  1  0
 26 28  2  0
 16 17  1  0
 26 29  2  0
  8  9  1  0
 22 30  1  0
 30 31  1  0
  9 10  2  0
 30 32  2  0
  5  6  1  0
 30 33  2  0
  9 11  1  0
  3  4  1  0
 23 34  1  0
 16 21  1  0
 34 35  1  0
 17 18  1  0
 34 36  2  0
 18 19  1  0
 34 37  2  0
 19 20  1  0
 20 21  1  0
 20 38  1  1
  5  7  2  0
 38 39  1  0
 39 12  1  0
 25  2  1  0
 16 22  1  1
  8 40  1  0
 12 13  1  0
 40 41  1  0
 17 23  1  1
 41 42  2  0
  2  3  1  0
 42 43  1  0
 21 24  1  6
 43 44  2  0
 12 14  2  0
 44 45  1  0
 18 25  1  6
 45 46  2  0
 46 41  1  0
M  CHG  8   1   1  13  -1  27  -1  31  -1  35  -1  47   1  48   1  49   1
M  END