
          11280715042D 1   1.00000     0.00000     0

 49 53  0     0  0            999 V2000
   -1.1125    1.1208    0.0000 C   0  0  0  0  0  0           0  0  0
   -1.1125    0.2958    0.0000 N   0  0  3  0  0  0           0  0  0
   -0.3958    2.3625    0.0000 N   0  0  3  0  0  0           0  0  0
    6.0250   -1.3875    0.0000 C   0  0  0  0  0  0           0  0  0
   -1.1083    2.7750    0.0000 C   0  0  0  0  0  0           0  0  0
    3.8792   -0.9667    0.0000 C   0  0  0  0  0  0           0  0  0
    6.7417   -0.9792    0.0000 C   0  0  0  0  0  0           0  0  0
    5.3125   -0.9750    0.0000 N   0  0  3  0  0  0           0  0  0
   -1.8250    1.5375    0.0000 C   0  0  3  0  0  0           0  0  0
    3.1625   -2.2000    0.0000 C   0  0  0  0  0  0           0  0  0
    4.5917   -1.3792    0.0000 C   0  0  0  0  0  0           0  0  0
    3.1667   -1.3750    0.0000 C   0  0  3  0  0  0           0  0  0
   -1.8250    2.3625    0.0000 C   0  0  0  0  0  0           0  0  0
   -0.3958   -0.1167    0.0000 C   0  0  3  0  0  0           0  0  0
    1.0250   -0.9500    0.0000 N   0  0  3  0  0  0           0  0  0
    3.8667   -2.6042    0.0000 C   0  0  0  0  0  0           0  0  0
   -0.4000    3.1958    0.0000 C   0  0  0  0  0  0           0  0  0
    0.4167    2.3708    0.0000 C   0  0  0  0  0  0           0  0  0
    3.8667   -3.4292    0.0000 C   0  0  0  0  0  0           0  0  0
    3.8875   -0.1417    0.0000 N   0  0  0  0  0  0           0  0  0
    0.4250    3.1958    0.0000 C   0  0  3  0  0  0           0  0  0
    2.4542   -0.9542    0.0000 C   0  0  0  0  0  0           0  0  0
    7.4500   -1.4000    0.0000 C   0  0  0  0  0  0           0  0  0
    6.7417   -0.1542    0.0000 C   0  0  0  0  0  0           0  0  0
   -0.3958    1.5333    0.0000 O   0  0  0  0  0  0           0  0  0
   -0.4000   -0.9417    0.0000 C   0  0  0  0  0  0           0  0  0
    0.3167    0.2958    0.0000 C   0  0  0  0  0  0           0  0  0
    3.1542   -3.8417    0.0000 C   0  0  0  0  0  0           0  0  0
    6.0167   -2.2125    0.0000 O   0  0  0  0  0  0           0  0  0
   -1.1083    3.6083    0.0000 O   0  0  0  0  0  0           0  0  0
    7.4542    0.2500    0.0000 C   0  0  0  0  0  0           0  0  0
    8.1667   -0.9917    0.0000 C   0  0  0  0  0  0           0  0  0
    8.1667   -0.1667    0.0000 C   0  0  0  0  0  0           0  0  0
    2.4417   -2.6042    0.0000 C   0  0  0  0  0  0           0  0  0
    1.7375   -1.3667    0.0000 C   0  0  0  0  0  0           0  0  0
    2.4375   -3.4292    0.0000 C   0  0  0  0  0  0           0  0  0
    0.3042   -1.3542    0.0000 C   0  0  0  0  0  0           0  0  0
    1.0292   -0.1250    0.0000 C   0  0  0  0  0  0           0  0  0
   -1.8250   -0.1125    0.0000 C   0  0  0  0  0  0           0  0  0
    4.5792   -3.8417    0.0000 Cl  0  0  0  0  0  0           0  0  0
    3.1500   -4.6667    0.0000 Cl  0  0  0  0  0  0           0  0  0
    8.8792   -1.4042    0.0000 Cl  0  0  0  0  0  0           0  0  0
    7.4542    1.0750    0.0000 Cl  0  0  0  0  0  0           0  0  0
    1.0042    3.7750    0.0000 O   0  0  0  0  0  0           0  0  0
    4.6042    0.2708    0.0000 O   0  0  0  0  0  0           0  0  0
    5.3167   -0.1500    0.0000 C   0  0  0  0  0  0           0  0  0
   -2.5333    1.1208    0.0000 C   0  0  0  0  0  0           0  0  0
   -2.5333    0.2958    0.0000 C   0  0  0  0  0  0           0  0  0
    5.3167    0.6708    0.0000 C   0  0  0  0  0  0           0  0  0
  2  1  1  0     0  0
  3  5  1  0     0  0
  4  8  1  0     0  0
  5 13  1  0     0  0
  6 12  1  0     0  0
  7  4  1  0     0  0
  8 11  1  0     0  0
  9  1  1  0     0  0
 12 10  1  0     0  0
 11  6  1  0     0  0
 12 22  1  0     0  0
  9 13  1  0     0  0
 14  2  1  0     0  0
 15 38  1  0     0  0
 16 10  1  0     0  0
 17  3  1  0     0  0
 18  3  1  0     0  0
 19 16  2  0     0  0
 20  6  2  0     0  0
 21 18  1  0     0  0
 22 35  1  0     0  0
 23  7  2  0     0  0
 24  7  1  0     0  0
 25  1  2  0     0  0
 26 14  1  0     0  0
 27 14  1  0     0  0
 28 36  2  0     0  0
 29  4  2  0     0  0
 30  5  2  0     0  0
 31 24  2  0     0  0
 32 23  1  0     0  0
 33 31  1  0     0  0
 34 10  2  0     0  0
 35 15  1  0     0  0
 36 34  1  0     0  0
 37 26  1  0     0  0
 38 27  1  0     0  0
 39  2  1  0     0  0
 40 19  1  0     0  0
 41 28  1  0     0  0
 42 32  1  0     0  0
 43 31  1  0     0  0
 44 21  1  0     0  0
 45 20  1  0     0  0
 46  8  1  0     0  0
 47  9  1  0     0  0
 48 47  1  0     0  0
 49 45  1  0     0  0
 39 48  1  0     0  0
 37 15  1  0     0  0
 17 21  1  0     0  0
 19 28  1  0     0  0
 32 33  2  0     0  0
M  END