
          11280714582D 1   1.00000     0.00000     0

 37 38  0     1  0            999 V2000
    1.0667   -4.2792    0.0000 C   0  0  0  0  0  0           0  0  0
    1.5875   -3.9792    0.0000 N   0  0  0  0  0  0           0  0  0
    2.6250   -3.9792    0.0000 C   0  0  0  0  0  0           0  0  0
    0.5417   -3.9792    0.0000 C   0  0  1  0  0  0           0  0  0
    0.0292   -4.2792    0.0000 N   0  0  0  0  0  0           0  0  0
    2.1042   -4.2792    0.0000 C   0  0  2  0  0  0           0  0  0
    3.1417   -4.2792    0.0000 N   0  0  0  0  0  0           0  0  0
    0.0292   -4.8792    0.0000 C   0  0  0  0  0  0           0  0  0
   -1.5333   -1.5792    0.0000 C   0  0  0  0  0  0           0  0  0
    1.5875   -5.7792    0.0000 C   0  0  0  0  0  0           0  0  0
    1.0667   -4.8792    0.0000 O   0  0  0  0  0  0           0  0  0
    0.5417   -3.3792    0.0000 C   0  0  0  0  0  0           0  0  0
    2.6250   -3.3792    0.0000 O   0  0  0  0  0  0           0  0  0
   -0.4958   -5.1792    0.0000 O   0  0  0  0  0  0           0  0  0
   -1.0125   -1.2750    0.0000 O   0  0  0  0  0  0           0  0  0
    1.0667   -6.0792    0.0000 O   0  0  0  0  0  0           0  0  0
    2.1042   -4.8792    0.0000 C   0  0  0  0  0  0           0  0  0
   -1.5333   -2.1792    0.0000 C   0  0  0  0  0  0           0  0  0
    1.5875   -5.1792    0.0000 C   0  0  0  0  0  0           0  0  0
    0.0292   -3.0792    0.0000 C   0  0  0  0  0  0           0  0  0
    3.6625   -3.9792    0.0000 C   0  0  0  0  0  0           0  0  0
   -1.0083   -2.4750    0.0000 C   0  0  0  0  0  0           0  0  0
    4.1792   -4.2792    0.0000 C   0  0  0  0  0  0           0  0  0
    5.2167   -4.8792    0.0000 C   0  0  0  0  0  0           0  0  0
   -2.0500   -1.2792    0.0000 O   0  0  0  0  0  0           0  0  0
    2.1042   -6.0792    0.0000 O   0  0  0  0  0  0           0  0  0
    0.0292   -2.4750    0.0000 C   0  0  0  0  0  0           0  0  0
   -0.4875   -3.3750    0.0000 C   0  0  0  0  0  0           0  0  0
   -1.0083   -3.0792    0.0000 C   0  0  0  0  0  0           0  0  0
   -0.4958   -2.1750    0.0000 C   0  0  0  0  0  0           0  0  0
    4.1792   -4.8792    0.0000 C   0  0  0  0  0  0           0  0  0
    4.7000   -3.9792    0.0000 C   0  0  0  0  0  0           0  0  0
    5.2167   -4.2750    0.0000 C   0  0  0  0  0  0           0  0  0
    4.7000   -5.1792    0.0000 C   0  0  0  0  0  0           0  0  0
    5.7417   -5.1792    0.0000 O   0  0  0  0  0  0           0  0  0
    0.5417   -5.1792    0.0000 C   0  0  0  0  0  0           0  0  0
    5.7417   -5.7792    0.0000 C   0  0  0  0  0  0           0  0  0
  2  1  1  0     0  0
  3  6  1  0     0  0
  4  1  1  0     0  0
  5  4  1  0     0  0
  6  2  1  0     0  0
  7  3  1  0     0  0
  8  5  1  0     0  0
  9 18  1  0     0  0
 10 19  1  0     0  0
 11  1  2  0     0  0
  4 12  1  1     0  0
 13  3  2  0     0  0
 14  8  2  0     0  0
 15  9  2  0     0  0
 16 10  2  0     0  0
  6 17  1  6     0  0
 18 22  1  0     0  0
 19 17  1  0     0  0
 20 12  1  0     0  0
 21  7  1  0     0  0
 22 29  1  0     0  0
 23 21  1  0     0  0
 24 33  1  0     0  0
 25  9  1  0     0  0
 26 10  1  0     0  0
 27 20  2  0     0  0
 28 20  1  0     0  0
 29 28  2  0     0  0
 30 27  1  0     0  0
 31 23  2  0     0  0
 32 23  1  0     0  0
 33 32  2  0     0  0
 34 31  1  0     0  0
 35 24  1  0     0  0
 36  8  1  0     0  0
 37 35  1  0     0  0
 30 22  2  0     0  0
 34 24  2  0     0  0
M  END