
          11280715252D 1   1.00000     0.00000     0

 19 21  0     0  0            999 V2000
    1.5625   -3.6292    0.0000 C   0  0  0  0  0  0           0  0  0
    1.0792   -4.2917    0.0000 N   0  0  0  0  0  0           0  0  0
    2.3792   -3.6375    0.0000 C   0  0  0  0  0  0           0  0  0
    1.0792   -2.9625    0.0000 C   0  0  0  0  0  0           0  0  0
    2.8000   -2.9167    0.0000 N   0  0  3  0  0  0           0  0  0
    0.2917   -3.2167    0.0000 C   0  0  0  0  0  0           0  0  0
    0.2917   -4.0417    0.0000 C   0  0  0  0  0  0           0  0  0
    3.6292   -1.4875    0.0000 N   0  0  3  0  0  0           0  0  0
    2.8000   -4.3500    0.0000 O   0  0  0  0  0  0           0  0  0
   -0.4208   -2.8042    0.0000 C   0  0  0  0  0  0           0  0  0
    3.6292   -2.9167    0.0000 C   0  0  0  0  0  0           0  0  0
    2.3792   -2.2042    0.0000 C   0  0  0  0  0  0           0  0  0
   -0.4208   -4.4542    0.0000 C   0  0  0  0  0  0           0  0  0
    2.8000   -1.4875    0.0000 C   0  0  0  0  0  0           0  0  0
    4.0417   -2.2042    0.0000 C   0  0  0  0  0  0           0  0  0
   -1.1333   -3.2167    0.0000 C   0  0  0  0  0  0           0  0  0
   -1.1333   -4.0417    0.0000 C   0  0  0  0  0  0           0  0  0
   -1.8500   -2.8042    0.0000 Br  0  0  0  0  0  0           0  0  0
    4.0417   -0.7625    0.0000 C   0  0  0  0  0  0           0  0  0
  2  1  1  0     0  0
  3  1  1  0     0  0
  4  1  2  0     0  0
  5  3  1  0     0  0
  6  4  1  0     0  0
  7  2  1  0     0  0
  8 14  1  0     0  0
  9  3  2  0     0  0
 10  6  2  0     0  0
 11  5  1  0     0  0
 12  5  1  0     0  0
 13  7  2  0     0  0
 14 12  1  0     0  0
 15 11  1  0     0  0
 16 10  1  0     0  0
 17 13  1  0     0  0
 18 16  1  0     0  0
 19  8  1  0     0  0
  7  6  1  0     0  0
  8 15  1  0     0  0
 17 16  2  0     0  0
M  END