
  CDK    9/16/09,9:42

 16 17  0  0  0  0  0  0  0  0999 V2000
   -5.2573    1.4663    0.0000 C   0  0  0  0  0  0  0  0  0  0  0  0
   -5.2586    0.6343    0.0000 C   0  0  0  0  0  0  0  0  0  0  0  0
   -4.5411    0.2170    0.0000 C   0  0  0  0  0  0  0  0  0  0  0  0
   -3.8174    0.6349    0.0000 C   0  0  0  0  0  0  0  0  0  0  0  0
   -3.8206    1.4703    0.0000 C   0  0  0  0  0  0  0  0  0  0  0  0
   -4.5431    1.8790    0.0000 C   0  0  0  0  0  0  0  0  0  0  0  0
   -3.1038    1.8862    0.0000 N   0  0  0  0  0  0  0  0  0  0  0  0
   -2.3875    1.4773    0.0000 S   0  0  0  0  0  0  0  0  0  0  0  0
   -1.6771    1.0631    0.0000 C   0  0  0  0  0  0  0  0  0  0  0  0
   -1.9714    2.1922    0.0000 O   0  0  0  0  0  0  0  0  0  0  0  0
   -2.7914    0.7537    0.0000 O   0  0  0  0  0  0  0  0  0  0  0  0
   -1.6818    0.2413    0.0000 C   0  0  0  0  0  0  0  0  0  0  0  0
   -0.9721   -0.1684    0.0000 C   0  0  0  0  0  0  0  0  0  0  0  0
   -0.2589    0.2380    0.0000 C   0  0  0  0  0  0  0  0  0  0  0  0
   -0.2595    1.0630    0.0000 C   0  0  0  0  0  0  0  0  0  0  0  0
   -0.9697    1.4735    0.0000 C   0  0  0  0  0  0  0  0  0  0  0  0
  7  8  1  0  0  0  0 
  8  9  1  0  0  0  0 
  4  5  1  0  0  0  0 
  8 10  2  0  0  0  0 
  2  3  1  0  0  0  0 
  8 11  2  0  0  0  0 
  5  6  2  0  0  0  0 
  9 12  2  0  0  0  0 
  6  1  1  0  0  0  0 
 12 13  1  0  0  0  0 
  1  2  2  0  0  0  0 
 13 14  2  0  0  0  0 
  5  7  1  0  0  0  0 
 14 15  1  0  0  0  0 
  3  4  2  0  0  0  0 
 15 16  2  0  0  0  0 
 16  9  1  0  0  0  0 
M  END