
          08180812472D 1   1.00000     0.00000     0

 27 30  0     1  0            999 V2000
   -5.2799  -29.1422    0.0000 C   0  0  0  0  0  0           0  0  0
   -5.2799  -29.9683    0.0000 C   0  0  0  0  0  0           0  0  0
   -4.5685  -30.3790    0.0000 C   0  0  0  0  0  0           0  0  0
   -4.5685  -28.7270    0.0000 C   0  0  0  0  0  0           0  0  0
   -3.8516  -29.9683    0.0000 C   0  0  0  0  0  0           0  0  0
   -3.1397  -30.3781    0.0000 C   0  0  0  0  0  0           0  0  0
   -2.4243  -29.9664    0.0000 C   0  0  0  0  0  0           0  0  0
   -2.4266  -29.1373    0.0000 C   0  0  1  0  0  0           0  0  0
   -2.4313  -27.4903    0.0000 C   0  0  0  0  0  0           0  0  0
   -3.1473  -27.9034    0.0000 C   0  0  0  0  0  0           0  0  0
   -1.7161  -27.9014    0.0000 C   0  0  1  0  0  0           0  0  0
   -1.7136  -28.7268    0.0000 C   0  0  1  0  0  0           0  0  0
   -0.9279  -28.9795    0.0000 C   0  0  0  0  0  0           0  0  0
   -0.4448  -28.3102    0.0000 C   0  0  0  0  0  0           0  0  0
   -0.9319  -27.6441    0.0000 C   0  0  2  0  0  0           0  0  0
   -2.4323  -28.3117    0.0000 H   0  0  0  0  0  0           0  0  0
   -1.7250  -27.0796    0.0000 C   0  0  0  0  0  0           0  0  0
   -0.1141  -27.6409    0.0000 O   0  0  0  0  0  0           0  0  0
   -0.9400  -26.8195    0.0000 C   0  0  0  0  0  0           0  0  0
   -1.7204  -29.5439    0.0000 H   0  0  0  0  0  0           0  0  0
   -3.8599  -27.4950    0.0000 C   0  0  0  0  0  0           0  0  0
   -2.4407  -26.6765    0.0000 C   0  0  0  0  0  0           0  0  0
   -0.9446  -25.9980    0.0000 C   0  0  0  0  0  0           0  0  0
   -3.1418  -28.7260    0.0000 C   0  0  2  0  0  0           0  0  0
   -3.8526  -29.1422    0.0000 C   0  0  1  0  0  0           0  0  0
   -3.8526  -28.3172    0.0000 H   0  0  0  0  0  0           0  0  0
   -3.1418  -29.5510    0.0000 H   0  0  0  0  0  0           0  0  0
  8 12  1  0     0  0
 11  9  1  0     0  0
  9 10  1  0     0  0
 11 12  1  0     0  0
  1  2  1  0     0  0
  1  4  1  0     0  0
  2  3  1  0     0  0
 25 24  1  0     0  0
  5  6  1  0     0  0
 12 13  1  0     0  0
 13 14  1  0     0  0
 14 15  1  0     0  0
 15 11  1  0     0  0
  6  7  1  0     0  0
  8 16  1  1     0  0
  7  8  1  0     0  0
 11 17  1  1     0  0
 24  8  1  0     0  0
 15 18  1  1     0  0
  3  5  2  0     0  0
 15 19  1  0     0  0
 25  4  1  0     0  0
 12 20  1  6     0  0
 25  5  1  0     0  0
 10 21  2  0     0  0
 17 22  1  0     0  0
 24 10  1  0     0  0
 19 23  3  0     0  0
 24 27  1  6     0  0
 25 26  1  1     0  0
M  END