
  SciTegic10041313202D

 25 26  0  0  1  0            999 V2000
    2.5667   -2.7542    0.0000 C   0  0
    4.7125   -3.1792    0.0000 C   0  0
    3.2792   -3.1750    0.0000 N   0  0
    1.8500   -3.1667    0.0000 N   0  0
    4.0000   -2.7625    0.0000 C   0  0  1  0  0  0
    5.4250   -2.7750    0.0000 N   0  0
    7.6787   -2.2952    0.0000 N   0  0
    6.8500   -2.7750    0.0000 C   0  0
    6.1375   -3.1875    0.0000 C   0  0
    2.5625   -1.9292    0.0000 O   0  0
    4.7042   -4.0000    0.0000 O   0  0
    4.0000   -1.9375    0.0000 C   0  0
    0.4250   -3.9917    0.0000 O   0  0
    1.1375   -2.7500    0.0000 C   0  0
    1.8500   -3.9917    0.0000 C   0  0
    4.4125   -1.2167    0.0000 C   0  0
    1.1375   -4.4000    0.0000 C   0  0
    0.4250   -3.1667    0.0000 C   0  0
    6.5500   -3.9000    0.0000 C   0  0
    5.7250   -3.9000    0.0000 C   0  0
    5.2375   -1.2125    0.0000 C   0  0
    3.9875   -0.5042    0.0000 C   0  0
    5.6375   -0.5000    0.0000 C   0  0
    4.4000    0.2125    0.0000 C   0  0
    5.2250    0.2250    0.0000 C   0  0
  2  5  1  0
  3  1  1  0
  4  1  1  0
  5  3  1  0
  6  2  1  0
  7  8  3  0
  8  9  1  0
  9  6  1  0
 10  1  2  0
 11  2  2  0
  5 12  1  1
 13 17  1  0
 14  4  1  0
 15  4  1  0
 16 12  1  0
 17 15  1  0
 18 14  1  0
  9 19  1  0
  9 20  1  0
 21 16  1  0
 22 16  1  0
 23 21  1  0
 24 22  1  0
 25 24  1  0
 18 13  1  0
 23 25  1  0
M  END