
  SciTegic10191216002D

 31 34  0  0  0  0            999 V2000
   -3.2511  -16.7978    0.0000 C   0  0
   -3.2525  -17.6254    0.0000 C   0  0
   -2.5394  -18.0382    0.0000 C   0  0
   -2.5414  -16.3849    0.0000 C   0  0
   -1.8232  -16.7938    0.0000 C   0  0
   -1.8242  -17.6274    0.0000 C   0  0
   -1.1067  -18.0427    0.0000 C   0  0
   -0.3837  -17.6289    0.0000 N   0  0
   -0.3828  -16.7953    0.0000 C   0  0
   -1.1048  -16.3755    0.0000 C   0  0
   -1.1051  -15.5505    0.0000 C   0  0
   -0.3917  -15.1409    0.0000 C   0  0
   -0.3916  -14.3167    0.0000 C   0  0
   -1.1067  -13.9036    0.0000 C   0  0
   -1.8235  -14.3208    0.0000 C   0  0
   -1.8200  -15.1436    0.0000 C   0  0
    0.3298  -18.0433    0.0000 C   0  0
   -3.9674  -18.0368    0.0000 O   0  0
   -4.6813  -17.6233    0.0000 C   0  0
   -4.6801  -16.7983    0.0000 C   0  0
   -5.3940  -16.3848    0.0000 C   0  0
   -5.3928  -15.5598    0.0000 N   0  0
   -4.6746  -15.1507    0.0000 C   0  0
   -4.6714  -14.3294    0.0000 C   0  0
   -5.3835  -13.9120    0.0000 C   0  0
   -6.1004  -14.3222    0.0000 C   0  0
   -6.1053  -15.1499    0.0000 C   0  0
   -5.3792  -13.0870    0.0000 F   0  0
   -1.1080  -13.0786    0.0000 O   0  0
   -0.3942  -12.6650    0.0000 C   0  0
    0.3230  -13.9043    0.0000 Cl  0  0
 14 15  1  0
  5  4  2  0
 15 16  2  0
 16 11  1  0
  4  1  1  0
  8 17  1  0
  5 10  1  0
  2 18  1  0
  6  7  1  0
 18 19  1  0
  7  8  1  0
 19 20  1  0
  8  9  1  0
 20 21  1  0
  9 10  1  0
 21 22  1  0
 22 23  1  0
  5  6  1  0
 10 11  1  0
 11 12  2  0
  2  3  1  0
 22 27  1  0
 23 24  1  0
 24 25  1  0
 25 26  1  0
 26 27  1  0
 12 13  1  0
 25 28  1  0
  3  6  2  0
 14 29  1  0
 13 14  2  0
 29 30  1  0
  1  2  2  0
 13 31  1  0
M  END