
          11280714592D 1   1.00000     0.00000     0

 46 47  0     0  0            999 V2000
    5.9125    1.6250    0.0000 C   0  0  0  0  0  0           0  0  0
    1.5250   -6.6500    0.0000 C   0  0  0  0  0  0           0  0  0
    2.2417   -7.0542    0.0000 C   0  0  0  0  0  0           0  0  0
    5.9042    0.8000    0.0000 C   0  0  0  0  0  0           0  0  0
    6.6167    2.0458    0.0000 C   0  0  0  0  0  0           0  0  0
    1.5500   -5.8292    0.0000 C   0  0  0  0  0  0           0  0  0
    6.6167    0.3833    0.0000 N   0  0  3  0  0  0           0  0  0
    2.2417   -7.8792    0.0000 N   0  0  3  0  0  0           0  0  0
    9.4417   -2.9417    0.0000 N   0  0  3  0  0  0           0  0  0
    7.2500   -8.2875    0.0000 N   0  0  3  0  0  0           0  0  0
    7.3375    1.6500    0.0000 O   0  0  0  0  0  0           0  0  0
    2.2792   -5.4375    0.0000 O   0  0  0  0  0  0           0  0  0
    0.7917   -7.0417    0.0000 C   0  0  0  0  0  0           0  0  0
    5.1917    2.0208    0.0000 C   0  0  0  0  0  0           0  0  0
    6.6000    2.8708    0.0000 C   0  0  0  0  0  0           0  0  0
    0.8542   -5.3917    0.0000 C   0  0  0  0  0  0           0  0  0
    7.3292    0.7875    0.0000 C   0  0  0  0  0  0           0  0  0
    2.9667   -8.2917    0.0000 C   0  0  0  0  0  0           0  0  0
   10.1417   -3.3667    0.0000 C   0  0  0  0  0  0           0  0  0
    9.4500   -2.1167    0.0000 C   0  0  0  0  0  0           0  0  0
    7.9625   -7.8750    0.0000 C   0  0  0  0  0  0           0  0  0
    6.5375   -7.8750    0.0000 C   0  0  0  0  0  0           0  0  0
    1.5292   -8.2917    0.0000 C   0  0  0  0  0  0           0  0  0
    6.6042   -0.4417    0.0000 C   0  0  0  0  0  0           0  0  0
    7.2500   -9.1042    0.0000 C   0  0  0  0  0  0           0  0  0
    8.7167   -3.3500    0.0000 C   0  0  0  0  0  0           0  0  0
    8.0417    2.0833    0.0000 C   0  0  0  0  0  0           0  0  0
    2.3042   -4.6125    0.0000 C   0  0  0  0  0  0           0  0  0
    5.8167   -8.2875    0.0000 C   0  0  0  0  0  0           0  0  0
    3.6792   -7.8792    0.0000 C   0  0  0  0  0  0           0  0  0
    7.9875   -7.0625    0.0000 C   0  0  0  0  0  0           0  0  0
    8.7375   -1.7000    0.0000 C   0  0  0  0  0  0           0  0  0
    8.0417    0.3708    0.0000 C   0  0  0  0  0  0           0  0  0
   10.1292   -4.1917    0.0000 C   0  0  0  0  0  0           0  0  0
    9.4042   -4.5917    0.0000 C   0  0  0  0  0  0           0  0  0
    5.1042   -7.8792    0.0000 C   0  0  0  0  0  0           0  0  0
    4.3917   -8.2917    0.0000 C   0  0  0  0  0  0           0  0  0
    8.7042   -6.6625    0.0000 C   0  0  0  0  0  0           0  0  0
    8.7417   -0.8750    0.0000 C   0  0  0  0  0  0           0  0  0
    8.0375   -0.4542    0.0000 C   0  0  0  0  0  0           0  0  0
    8.7042   -5.8375    0.0000 C   0  0  0  0  0  0           0  0  0
    9.4125   -5.4167    0.0000 C   0  0  0  0  0  0           0  0  0
    0.0917   -6.6042    0.0000 C   0  0  0  0  0  0           0  0  0
    5.1667    2.8375    0.0000 C   0  0  0  0  0  0           0  0  0
    5.8792    3.2708    0.0000 C   0  0  0  0  0  0           0  0  0
    0.1250   -5.7792    0.0000 C   0  0  0  0  0  0           0  0  0
  2  3  1  0     0  0
  3  8  1  0     0  0
  4  1  1  0     0  0
  5  1  2  0     0  0
  6  2  2  0     0  0
  7  4  1  0     0  0
  8 18  1  0     0  0
  9 20  1  0     0  0
 10 21  1  0     0  0
 11  5  1  0     0  0
 12  6  1  0     0  0
 13  2  1  0     0  0
 14  1  1  0     0  0
 15  5  1  0     0  0
 16  6  1  0     0  0
 17  7  1  0     0  0
 18 30  1  0     0  0
 19  9  1  0     0  0
 20 32  1  0     0  0
 21 31  1  0     0  0
 22 10  1  0     0  0
 23  8  1  0     0  0
 24  7  1  0     0  0
 25 10  1  0     0  0
 26  9  1  0     0  0
 27 11  1  0     0  0
 28 12  1  0     0  0
 29 22  1  0     0  0
 30 37  1  0     0  0
 31 38  1  0     0  0
 32 39  1  0     0  0
 33 17  1  0     0  0
 34 19  1  0     0  0
 35 34  1  0     0  0
 36 29  1  0     0  0
 37 36  1  0     0  0
 38 41  1  0     0  0
 39 40  1  0     0  0
 40 33  1  0     0  0
 41 42  1  0     0  0
 42 35  1  0     0  0
 43 13  2  0     0  0
 44 14  2  0     0  0
 45 44  1  0     0  0
 46 43  1  0     0  0
 45 15  2  0     0  0
 46 16  2  0     0  0
M  END