
  SciTegic06051315212D

 19 19  0  0  0  0            999 V2000
    1.6330   -8.7827    0.0000 C   0  0
    1.6318   -9.6022    0.0000 C   0  0
    2.3399  -10.0112    0.0000 C   0  0
    3.0495   -9.6018    0.0000 C   0  0
    3.0467   -8.7791    0.0000 C   0  0
    2.3381   -8.3738    0.0000 C   0  0
    2.3356   -7.5567    0.0000 S   0  0
    3.0421   -7.1459    0.0000 N   0  0
    1.5395   -7.7633    0.0000 O   0  0
    1.9192   -6.8429    0.0000 O   0  0
    3.7529   -8.3678    0.0000 F   0  0
    0.9252   -8.3743    0.0000 F   0  0
    0.9238  -10.0103    0.0000 F   0  0
    3.7579  -10.0093    0.0000 F   0  0
    2.3397  -10.8284    0.0000 S   0  0
    1.6319  -11.2368    0.0000 C   0  0
    1.6317  -12.0540    0.0000 C   0  0
    0.9238  -12.4624    0.0000 O   0  0
    2.3393  -12.4628    0.0000 O   0  0
  1  2  2  0
  2  3  1  0
  3  4  2  0
  4  5  1  0
  5  6  2  0
  6  1  1  0
  6  7  1  0
  7  8  1  0
  7  9  2  0
  7 10  2  0
  5 11  1  0
  1 12  1  0
  2 13  1  0
  4 14  1  0
  3 15  1  0
 15 16  1  0
 16 17  1  0
 17 18  1  0
 17 19  2  0
M  END