
  SciTegic01181116592D

 40 42  0  0  0  0            999 V2000
   12.7401  -17.8484    0.0000 N   0  0
   -2.3571  -19.2558    0.0000 C   0  0
   -2.7782  -19.9680    0.0000 C   0  0
   -2.3721  -20.6866    0.0000 C   0  0
   -1.5450  -20.6944    0.0000 C   0  0
   -1.1257  -19.9775    0.0000 C   0  0
   -1.5342  -19.2617    0.0000 C   0  0
   -1.1169  -18.5501    0.0000 N   0  0
   -0.2960  -18.4689    0.0000 N   0  0
   -0.1195  -17.6630    0.0000 C   0  0
   -0.8315  -17.2461    0.0000 C   0  0
   -1.4479  -17.7944    0.0000 C   0  0
   -2.2683  -17.7961    0.0000 C   0  0
   -2.6808  -17.0803    0.0000 C   0  0
   -3.5050  -17.0805    0.0000 C   0  0
   -3.9178  -17.7959    0.0000 C   0  0
   -3.5003  -18.5124    0.0000 C   0  0
   -2.6774  -18.5086    0.0000 C   0  0
   -0.9128  -16.4251    0.0000 C   0  0
    0.6001  -17.2590    0.0000 C   0  0
    1.3097  -17.6799    0.0000 N   0  0
    0.6099  -16.4341    0.0000 O   0  0
   -0.3007  -19.9819    0.0000 Cl  0  0
   -2.7913  -21.3972    0.0000 Cl  0  0
   -4.7428  -17.7976    0.0000 Cl  0  0
    2.0290  -17.2759    0.0000 C   0  0
    2.7385  -17.6968    0.0000 C   0  0
    3.4578  -17.2927    0.0000 C   0  0
    4.1674  -17.7136    0.0000 C   0  0
    4.8867  -17.3095    0.0000 C   0  0
    5.5962  -17.7304    0.0000 C   0  0
    6.3155  -17.3264    0.0000 C   0  0
    7.0251  -17.7473    0.0000 N   0  0
    7.7443  -17.3432    0.0000 C   0  0
    8.4539  -17.7641    0.0000 C   0  0
    9.1732  -17.3601    0.0000 C   0  0
    9.8827  -17.7809    0.0000 C   0  0
   10.6020  -17.3769    0.0000 C   0  0
   11.3116  -17.7978    0.0000 C   0  0
   12.0309  -17.3937    0.0000 C   0  0
  3  4  1  0
 10 20  1  0
  9 10  2  0
 20 21  1  0
 10 11  1  0
 20 22  2  0
 11 12  2  0
  6 23  1  0
 12  8  1  0
  4 24  1  0
  7  8  1  0
 16 25  1  0
  6  7  2  0
 21 26  1  0
  7  2  1  0
 26 27  1  0
 13 14  2  0
 27 28  1  0
  8  9  1  0
 28 29  1  0
 14 15  1  0
 29 30  1  0
  2  3  2  0
 30 31  1  0
 15 16  2  0
 31 32  1  0
  4  5  2  0
 32 33  1  0
 16 17  1  0
 33 34  1  0
 34 35  1  0
 17 18  2  0
 35 36  1  0
 18 13  1  0
 36 37  1  0
 12 13  1  0
 37 38  1  0
  5  6  1  0
 38 39  1  0
 11 19  1  0
 39 40  1  0
 40  1  1  0
M  END