
          11280715542D 1   1.00000     0.00000     0

 24 26  0     0  0            999 V2000
    0.9652   -3.2500    0.0000 C   0  0  0  0  0  0           0  0  0
    0.9641   -4.0773    0.0000 C   0  0  0  0  0  0           0  0  0
    1.6789   -4.4902    0.0000 C   0  0  0  0  0  0           0  0  0
    2.3953   -4.0769    0.0000 C   0  0  0  0  0  0           0  0  0
    2.3925   -3.2463    0.0000 C   0  0  0  0  0  0           0  0  0
    1.6771   -2.8372    0.0000 C   0  0  0  0  0  0           0  0  0
    1.6718   -2.0151    0.0000 C   0  0  0  0  0  0           0  0  0
    2.3867   -1.6010    0.0000 C   0  0  0  0  0  0           0  0  0
    2.3846   -0.7768    0.0000 C   0  0  0  0  0  0           0  0  0
    1.6683   -0.3656    0.0000 C   0  0  0  0  0  0           0  0  0
    0.9527   -0.7847    0.0000 C   0  0  0  0  0  0           0  0  0
    0.9583   -1.6075    0.0000 C   0  0  0  0  0  0           0  0  0
    3.1023   -2.8324    0.0000 C   0  0  0  0  0  0           0  0  0
    3.8186   -3.2440    0.0000 C   0  0  0  0  0  0           0  0  0
    4.5311   -2.8295    0.0000 C   0  0  0  0  0  0           0  0  0
    4.5284   -2.0036    0.0000 C   0  0  0  0  0  0           0  0  0
    3.8074   -1.5940    0.0000 C   0  0  0  0  0  0           0  0  0
    3.0979   -2.0108    0.0000 C   0  0  0  0  0  0           0  0  0
    0.2507   -2.8376    0.0000 N   0  0  0  0  0  0           0  0  0
    0.2505   -2.0126    0.0000 C   0  0  0  0  0  0           0  0  0
    0.2493   -4.4893    0.0000 C   0  0  0  0  0  0           0  0  0
   -0.4649   -4.0762    0.0000 N   0  0  0  0  0  0           0  0  0
   -1.1797   -4.4881    0.0000 O   0  0  0  0  0  0           0  0  0
    5.2408   -1.5875    0.0000 O   0  0  0  0  0  0           0  0  0
 12  7  2  0     0  0
  6  7  1  0     0  0
  6  1  2  0     0  0
  1  2  1  0     0  0
 13 14  2  0     0  0
  3  4  1  0     0  0
 14 15  1  0     0  0
  7  8  1  0     0  0
 15 16  2  0     0  0
 16 17  1  0     0  0
  8  9  2  0     0  0
 17 18  2  0     0  0
 18 13  1  0     0  0
  5 13  1  0     0  0
  4  5  2  0     0  0
  1 19  1  0     0  0
  9 10  1  0     0  0
 19 20  1  0     0  0
  2  3  2  0     0  0
  2 21  1  0     0  0
 10 11  2  0     0  0
 21 22  2  0     0  0
  5  6  1  0     0  0
 22 23  1  0     0  0
 11 12  1  0     0  0
 16 24  1  0     0  0
M  END