
  SciTegic02011310442D

 38 42  0  0  0  0            999 V2000
   15.3662  -14.0609    0.0000 N   0  0
   16.0827  -13.6476    0.0000 C   0  0
   16.0799  -12.8170    0.0000 N   0  0
   15.3645  -12.4079    0.0000 C   0  0
   14.6515  -13.6481    0.0000 N   0  0
   14.6527  -12.8191    0.0000 C   0  0
   13.8647  -12.5618    0.0000 C   0  0
   13.3764  -13.2317    0.0000 C   0  0
   13.8627  -13.9030    0.0000 C   0  0
   16.7979  -14.0590    0.0000 S   0  0
   17.5116  -13.6453    0.0000 C   0  0
   15.3627  -11.5829    0.0000 N   0  0
   16.0762  -11.1688    0.0000 C   0  0
   18.2233  -14.0571    0.0000 C   0  0
   18.9367  -13.6442    0.0000 C   0  0
   18.9359  -12.8183    0.0000 C   0  0
   18.2158  -12.4071    0.0000 C   0  0
   17.5054  -12.8225    0.0000 C   0  0
   16.8284  -11.5040    0.0000 C   0  0
   17.3791  -10.8897    0.0000 C   0  0
   16.9649  -10.1761    0.0000 N   0  0
   16.1584  -10.3496    0.0000 N   0  0
   18.1997  -10.9742    0.0000 C   0  0
   19.6491  -12.4038    0.0000 N   0  0
   20.3648  -12.8142    0.0000 C   0  0
   21.0780  -12.3997    0.0000 C   0  0
   21.7937  -12.8100    0.0000 N   0  0
   20.3672  -13.6392    0.0000 O   0  0
   21.8795  -13.6281    0.0000 C   0  0
   22.6870  -13.7973    0.0000 C   0  0
   23.0974  -13.0815    0.0000 C   0  0
   22.5435  -12.4701    0.0000 C   0  0
   23.0248  -14.5500    0.0000 C   0  0
   22.5417  -15.2188    0.0000 O   0  0
   23.8454  -14.6338    0.0000 C   0  0
   24.1832  -15.3865    0.0000 C   0  0
   24.3284  -13.9650    0.0000 C   0  0
   24.6665  -14.6332    0.0000 C   0  0
  5  1  1  0
  1  2  2  0
  2  3  1  0
  3  4  2  0
  4  6  1  0
  5  6  1  0
  6  7  2  0
  7  8  1  0
  8  9  2  0
  9  5  1  0
  2 10  1  0
 10 11  1  0
  4 12  1  0
 12 13  1  0
 11 14  2  0
 14 15  1  0
 15 16  2  0
 16 17  1  0
 17 18  2  0
 18 11  1  0
 13 19  1  0
 19 20  2  0
 20 21  1  0
 21 22  1  0
 22 13  2  0
 20 23  1  0
 16 24  1  0
 24 25  1  0
 25 26  1  0
 26 27  1  0
 25 28  2  0
 27 29  1  0
 29 30  1  0
 30 31  1  0
 31 32  1  0
 32 27  1  0
 30 33  1  0
 33 34  2  0
 33 35  1  0
 35 36  1  0
 35 37  1  0
 35 38  1  0
M  END