
  SciTegic06271217572D

 21 22  0  0  0  0            999 V2000
   12.4162  -28.3652    0.0000 S   0  0
   12.8285  -29.0798    0.0000 O   0  0
   13.2412  -28.3654    0.0000 O   0  0
   11.7027  -26.3000    0.0000 C   0  0
   11.7016  -27.1273    0.0000 C   0  0
   12.4164  -27.5402    0.0000 C   0  0
   13.1328  -27.1269    0.0000 C   0  0
   13.1300  -26.2963    0.0000 C   0  0
   12.4146  -25.8872    0.0000 C   0  0
   13.8429  -25.8811    0.0000 C   0  0
   14.5589  -26.2909    0.0000 C   0  0
   13.8398  -25.0561    0.0000 O   0  0
   15.2718  -25.8758    0.0000 S   0  0
   15.9878  -26.2856    0.0000 C   0  0
   15.9878  -27.1094    0.0000 C   0  0
   16.7030  -27.5191    0.0000 C   0  0
   17.4169  -27.1039    0.0000 C   0  0
   17.4111  -26.2746    0.0000 C   0  0
   16.6954  -25.8687    0.0000 C   0  0
   10.9868  -27.5393    0.0000 Cl  0  0
   11.7016  -28.7775    0.0000 N   0  0
 10 11  1  0
 10 12  2  0
  6  7  2  0
 11 13  1  0
  2  1  2  0
 13 14  1  0
  7  8  1  0
 14 15  2  0
  4  5  2  0
 15 16  1  0
  8  9  2  0
 16 17  2  0
  9  4  1  0
 17 18  1  0
  1  3  2  0
 18 19  2  0
 19 14  1  0
  8 10  1  0
  5 20  1  0
  6  1  1  0
  5  6  1  0
  1 21  1  0
M  END