
  SciTegic04091414352D

 22 23  0  0  0  0            999 V2000
   26.4266   -2.0223    0.0000 C   0  0  2  0  0  0
   26.4266   -2.8395    0.0000 C   0  0  2  0  0  0
   27.1319   -3.2440    0.0000 C   0  0  1  0  0  0
   27.8372   -2.8395    0.0000 C   0  0  1  0  0  0
   27.8372   -2.0223    0.0000 C   0  0  2  0  0  0
   27.1319   -1.6096    0.0000 O   0  0
   28.5443   -3.2492    0.0000 O   0  0
   27.1319   -4.0612    0.0000 O   0  0
   25.7177   -1.6158    0.0000 C   0  0
   25.7153   -0.7986    0.0000 O   0  0
   25.7195   -3.2492    0.0000 O   0  0
   28.5461   -1.6158    0.0000 O   0  0
   29.2526   -2.0265    0.0000 C   0  0
   29.2486   -2.8447    0.0000 C   0  0
   29.9543   -3.2553    0.0000 C   0  0
   30.6642   -2.8487    0.0000 C   0  0
   30.6640   -2.0273    0.0000 C   0  0
   29.9577   -1.6204    0.0000 C   0  0
   31.3722   -3.2564    0.0000 C   0  0
   32.0793   -3.6661    0.0000 C   0  0
   32.7863   -4.0758    0.0000 C   0  0
   33.4947   -3.6684    0.0000 O   0  0
  1  2  1  0
  1  6  1  0
  2  3  1  0
  3  4  1  0
  4  5  1  0
  5  6  1  0
  4  7  1  1
  3  8  1  1
  1  9  1  1
  9 10  1  0
  2 11  1  6
  5 12  1  6
 12 13  1  0
 13 14  2  0
 14 15  1  0
 15 16  2  0
 16 17  1  0
 17 18  2  0
 18 13  1  0
 19 20  3  0
 16 19  1  0
 20 21  1  0
 21 22  1  0
M  END