
  SciTegic12231509382D

 19 21  0  0  0  0            999 V2000
   10.0346  -18.0276    0.0000 C   0  0
   10.7513  -17.6170    0.0000 C   0  0
   10.0346  -18.8531    0.0000 N   0  0
   10.7513  -16.7915    0.0000 N   0  0
    8.6092  -20.4998    0.0000 N   0  0
    9.3219  -20.0891    0.0000 C   0  0
    9.3219  -19.2637    0.0000 C   0  0
    8.6092  -18.8531    0.0000 N   0  0
    7.8966  -19.2637    0.0000 C   0  0
    7.1839  -18.8531    0.0000 C   0  0
    6.4671  -19.2637    0.0000 C   0  0
    6.4671  -20.0891    0.0000 C   0  0
    7.1839  -20.4998    0.0000 C   0  0
    7.8966  -20.0891    0.0000 C   0  0
    9.9355  -20.6397    0.0000 N   0  0
    9.5994  -21.3949    0.0000 C   0  0
    8.7808  -21.3063    0.0000 C   0  0
    5.7545  -20.4998    0.0000 C   0  0
    8.2302  -21.9200    0.0000 C   0  0
  1  2  1  0
  1  3  1  0
  2  4  1  0
  5  6  1  0
  6  7  1  0
  7  8  2  0
  8  9  1  0
  9 10  1  0
 10 11  2  0
 11 12  1  0
 12 13  2  0
 13 14  1  0
  5 14  1  0
  9 14  2  0
 15 16  1  0
 16 17  2  0
  5 17  1  0
  6 15  2  0
 12 18  1  0
 17 19  1  0
  3  7  1  0
M  END