
  SciTegic04091414152D

 29 32  0  0  0  0            999 V2000
    9.2520  -13.4372    0.0000 C   0  0  1  0  0  0
    9.5081  -14.2214    0.0000 C   0  0
   10.0592  -13.6074    0.0000 O   0  0
    3.9527   -9.9249    0.0000 C   0  0
    3.9516  -10.7523    0.0000 C   0  0
    4.6663  -11.1651    0.0000 C   0  0
    5.3828  -10.7518    0.0000 C   0  0
    5.3800   -9.9212    0.0000 C   0  0
    4.6645   -9.5121    0.0000 C   0  0
    6.0979  -11.1632    0.0000 C   0  0
    6.8117  -10.7496    0.0000 N   0  0
    7.5683  -11.0804    0.0000 N   0  0
    8.1194  -10.4665    0.0000 C   0  0
    7.7057   -9.7525    0.0000 C   0  0
    6.8990   -9.9255    0.0000 C   0  0
    8.9399  -10.5514    0.0000 N   0  0
    9.2767  -11.3045    0.0000 C   0  0
    8.8667  -12.0181    0.0000 S   0  0
    9.4198  -12.6303    0.0000 C   0  0
   10.1729  -12.2937    0.0000 N   0  0
   10.0853  -11.4733    0.0000 N   0  0
    8.4653  -13.6938    0.0000 C   0  0
    7.7982  -13.2138    0.0000 N   0  0
    7.1315  -13.6997    0.0000 C   0  0
    7.3878  -14.4840    0.0000 C   0  0
    8.2127  -14.4826    0.0000 S   0  0
    6.3465  -13.4461    0.0000 C   0  0
    6.0928   -9.5061    0.0000 F   0  0
    4.6661  -11.9901    0.0000 F   0  0
  2  1  1  0
  1  3  1  1
  4  5  2  0
  5  6  1  0
  6  7  2  0
  7  8  1  0
  8  9  2  0
  9  4  1  0
  7 10  1  0
 10 11  1  0
 11 12  1  0
 12 13  2  0
 13 14  1  0
 14 15  2  0
 15 11  1  0
 13 16  1  0
 16 17  1  0
 17 18  1  0
 18 19  1  0
 19 20  2  0
 20 21  1  0
 21 17  2  0
 19  1  1  0
  1 22  1  0
 22 23  2  0
 23 24  1  0
 24 25  2  0
 25 26  1  0
 26 22  1  0
 24 27  1  0
  8 28  1  0
  6 29  1  0
M  END