
  SciTegic12231509382D

 15 15  0  0  0  0            999 V2000
    3.5504   -1.7875    0.0000 O   0  0
    4.9793    1.5125    0.0000 O   0  0
    2.1214   -0.9625    0.0000 O   0  0
    6.4083    0.6875    0.0000 N   0  0
    4.2648    0.2750    0.0000 C   0  0
    3.5504   -0.9625    0.0000 C   0  0
    4.9793    0.6875    0.0000 C   0  0
    4.2648   -0.5500    0.0000 C   0  0
    2.8359   -0.5500    0.0000 C   0  0
    3.5504    0.6875    0.0000 C   0  0
    2.8359    0.2750    0.0000 C   0  0
    5.6938    0.2750    0.0000 C   0  0
    7.1227    0.2750    0.0000 C   0  0
    7.8372    0.6875    0.0000 C   0  0
    7.1227   -0.5500    0.0000 C   0  0
  1  6  1  0
  2  7  2  0
  3  9  1  0
  4 12  1  0
  4 13  1  0
  5  7  1  0
  5  8  1  0
  5 10  2  0
  6  8  2  0
  6  9  1  0
  7 12  1  0
  9 11  2  0
 10 11  1  0
 13 14  1  0
 13 15  1  0
M  END