
  SciTegic11201309402D

 23 26  0  0  1  0            999 V2000
   14.4716  -21.5987    0.0000 C   0  0
   14.4778  -20.2626    0.0000 C   0  0  2  0  0  0
   13.9924  -20.9286    0.0000 C   0  0
   15.2635  -20.5226    0.0000 C   0  0  1  0  0  0
   15.2575  -21.3477    0.0000 N   0  0
   16.0404  -21.6084    0.0000 C   0  0
   16.5303  -20.9443    0.0000 C   0  0
   16.0501  -20.2734    0.0000 C   0  0
   14.2255  -19.4771    0.0000 C   0  0
   13.4192  -19.3028    0.0000 O   0  0
   13.1669  -18.5173    0.0000 C   0  0
   12.3605  -18.3431    0.0000 C   0  0
   13.7210  -17.9061    0.0000 O   0  0
   11.0321  -18.4810    0.0000 N   0  0
   11.7452  -18.8958    0.0000 C   0  0
   11.2063  -17.6745    0.0000 C   0  0
   12.0259  -17.5918    0.0000 C   0  0
   12.3623  -16.8420    0.0000 C   0  0
   11.8803  -16.1743    0.0000 C   0  0
   11.0580  -16.2613    0.0000 C   0  0
   10.7253  -17.0114    0.0000 C   0  0
   12.2167  -15.4210    0.0000 F   0  0
   15.2699  -19.5226    0.0000 H   0  0
  9 10  1  0
  4  2  1  0
 10 11  1  0
  2  3  1  0
 11 12  1  0
  3  1  1  0
 11 13  2  0
 12 17  1  0
  5  6  1  0
  6  7  1  0
 16 14  1  0
 14 15  1  0
 15 12  2  0
  7  8  1  0
  4  8  1  0
 16 17  2  0
  4  5  1  0
 17 18  1  0
 18 19  2  0
  1  5  1  0
 19 20  1  0
  2  9  1  1
 20 21  2  0
 21 16  1  0
 19 22  1  0
  4 23  1  1
M  END