
  SciTegic06011109532D

150157  0  0  0  0            999 V2000
    2.4506   -2.5659    0.0000 C   0  0
    2.4535   -1.7409    0.0000 O   0  0
    1.7347   -2.9759    0.0000 C   0  0
    1.0217   -2.5609    0.0000 O   0  0
    0.3057   -2.9709    0.0000 C   0  0
   -0.4073   -2.5558    0.0000 C   0  0
   -1.1232   -2.9658    0.0000 N   0  0
   -0.4044   -1.7308    0.0000 O   0  0
   -1.1261   -3.7908    0.0000 C   0  0
   -0.4137   -4.2032    0.0000 C   0  0
   -0.4162   -5.0274    0.0000 C   0  0
   -1.1327   -5.4382    0.0000 C   0  0
   -1.8481   -5.0188    0.0000 C   0  0
   -1.8420   -4.1959    0.0000 C   0  0
   -1.1367   -6.2632    0.0000 C   0  0
   -1.8532   -6.6722    0.0000 C   0  0
   -1.8572   -7.4972    0.0000 C   0  0
   -2.5737   -7.9062    0.0000 N   0  0
   -1.1447   -7.9132    0.0000 O   0  0
   -3.3702   -7.6915    0.0000 C   0  0
   -3.5876   -8.4873    0.0000 C   0  0
   -2.7917   -8.7047    0.0000 C   0  0
   -3.7804   -6.9757    0.0000 O   0  0
    8.8608   -7.9985    0.0000 C   0  0  2  0  0  0
    8.1493   -6.7606    0.0000 O   0  0
    8.1493   -7.5843    0.0000 C   0  0
    8.8608   -8.8179    0.0000 C   0  0
    8.1493   -9.2316    0.0000 C   0  0
    8.1493  -10.0553    0.0000 C   0  0
    6.7198   -7.5843    0.0000 C   0  0  1  0  0  0
    6.0084   -8.8179    0.0000 O   0  0
    6.0084   -7.9985    0.0000 C   0  0
    4.5789   -7.9985    0.0000 C   0  0  2  0  0  0
    3.8634   -6.7606    0.0000 O   0  0
    3.8634   -7.5843    0.0000 C   0  0
    4.5789   -8.8179    0.0000 C   0  0
    3.8634   -9.2316    0.0000 C   0  0
    9.5755   -7.5883    0.0000 N   0  0
    5.3062   -4.2350    0.0000 C   0  0  2  0  0  0
    6.0276   -3.0018    0.0000 O   0  0
    6.0302   -3.8208    0.0000 C   0  0
    5.3167   -5.0535    0.0000 C   0  0
    7.4471   -3.8133    0.0000 C   0  0  2  0  0  0
    8.1624   -5.0408    0.0000 O   0  0
    8.1627   -4.2136    0.0000 C   0  0
    7.4484   -2.9949    0.0000 C   0  0
    8.1511   -2.5808    0.0000 C   0  0
    6.7294   -2.5816    0.0000 C   0  0
   10.9977   -6.7631    0.0000 C   0  0
   10.9977   -7.5844    0.0000 C   0  0  1  0  0  0
   10.3204   -3.8190    0.0000 C   0  0
    9.5907   -4.2279    0.0000 C   0  0  2  0  0  0
    9.5825   -5.0569    0.0000 C   0  0
   10.3010   -5.4861    0.0000 S   0  0
   10.2921   -6.3246    0.0000 S   0  0
   13.1311   -3.8717    0.0000 C   0  0
   11.7190   -3.0341    0.0000 C   0  0
   11.0015   -2.6122    0.0000 C   0  0  2  0  0  0
   10.2834   -7.9985    0.0000 C   0  0
   10.2830   -8.8174    0.0000 O   0  0
   11.0336   -4.2168    0.0000 O   0  0
   13.1399   -3.0537    0.0000 C   0  0  2  0  0  0
   11.0136   -1.7934    0.0000 C   0  0
   11.7134   -3.8560    0.0000 O   0  0
   13.8488   -2.6529    0.0000 C   0  0
   13.8571   -1.8300    0.0000 C   0  0
   12.4145   -4.2788    0.0000 O   0  0
   11.7040   -8.8241    0.0000 C   0  0
   10.9885   -9.2300    0.0000 O   0  0
   12.4120   -9.2324    0.0000 C   0  0  2  0  0  0
   12.4030  -10.0608    0.0000 C   0  0
   13.8300   -9.2410    0.0000 C   0  0
   13.8266  -10.0633    0.0000 O   0  0
   13.8342   -7.6125    0.0000 C   0  0
   13.8330   -6.7896    0.0000 C   0  0  2  0  0  0
   13.1280   -8.0201    0.0000 O   0  0
   13.1244   -6.3803    0.0000 C   0  0
   14.5360   -5.5513    0.0000 C   0  0
   13.8251   -5.1486    0.0000 O   0  0
   15.2486   -5.1355    0.0000 C   0  0  1  0  0  0
   15.9558   -3.9058    0.0000 C   0  0
   15.9481   -3.0772    0.0000 C   0  0  2  0  0  0
   16.6709   -4.3087    0.0000 O   0  0
   16.6630   -2.6613    0.0000 C   0  0
   16.6616   -1.8447    0.0000 C   0  0
   17.3718   -3.0770    0.0000 C   0  0
    4.6072   -3.8264    0.0000 N   0  0
    6.7335   -4.2241    0.0000 N   0  0
   11.7065   -8.0019    0.0000 N   0  0
   10.2893   -3.0271    0.0000 N   0  0
   12.4320   -2.6300    0.0000 N   0  0
   13.1235   -8.8306    0.0000 N   0  0
   14.5479   -6.3744    0.0000 N   0  0
   15.2596   -4.3074    0.0000 N   0  0
   13.8398   -4.2897    0.0000 N   0  0
    8.8817   -3.8167    0.0000 N   0  0
   14.5341   -1.3627    0.0000 C   0  0
   14.2914   -0.5767    0.0000 N   0  0
    7.4377   -7.9985    0.0000 N   0  0
    5.2968   -7.5843    0.0000 N   0  0
    3.1518   -7.9985    0.0000 N   0  0
   13.2049   -1.3444    0.0000 C   0  0
   13.4689   -0.5678    0.0000 C   0  0
   12.9289    0.0470    0.0000 C   0  0
   12.1250   -0.1134    0.0000 C   0  0
   11.8637   -0.8941    0.0000 C   0  0
   12.4052   -1.5057    0.0000 C   0  0
    4.6011   -5.4791    0.0000 C   0  0
    4.6117   -6.3116    0.0000 O   0  0
    3.8747   -5.0720    0.0000 O   0  0
    4.6117   -2.9938    0.0000 C   0  0
    3.8928   -2.5736    0.0000 C   0  0  2  0  0  0
    5.3349   -2.5813    0.0000 O   0  0
    3.8972   -1.7410    0.0000 C   0  0
    3.1694   -2.9861    0.0000 N   0  0
    4.6205   -1.3285    0.0000 C   0  0
    5.3385   -1.7522    0.0000 C   0  0
    6.0614   -1.3404    0.0000 C   0  0
    6.0662   -0.5069    0.0000 C   0  0
    5.3423   -0.0868    0.0000 C   0  0
    4.6225   -0.5010    0.0000 C   0  0
    6.7182   -6.7516    0.0000 C   0  0
    5.9964   -6.3367    0.0000 C   0  0
   12.4032   -6.7966    0.0000 C   0  0
   11.6822   -6.3801    0.0000 C   0  0
   12.4031   -7.6292    0.0000 C   0  0
   14.5522   -8.0123    0.0000 N   0  0
   14.5489   -8.8332    0.0000 C   0  0  1  0  0  0
   15.3286   -9.0900    0.0000 C   0  0
   15.8137   -8.4278    0.0000 C   0  0
   15.3339   -7.7618    0.0000 C   0  0
   14.5444   -9.6634    0.0000 H   0  0
   11.6775  -10.4694    0.0000 C   0  0
   10.9204  -10.1258    0.0000 C   0  0
   10.3566  -10.7386    0.0000 N   0  0
   10.7652  -11.4641    0.0000 C   0  0
   11.5814  -11.2997    0.0000 N   0  0
   15.9679   -5.5550    0.0000 C   0  0  1  0  0  0
   15.9642   -6.3876    0.0000 C   0  0
   16.6907   -5.1418    0.0000 O   0  0
   15.2424   -5.9669    0.0000 H   0  0
    7.4281  -10.4716    0.0000 C   0  0
    7.4281  -11.3043    0.0000 N   0  0
    3.8639  -10.0566    0.0000 S   0  0
   10.3053   -1.3704    0.0000 C   0  0
   10.3175   -0.5455    0.0000 C   0  0
    9.6092   -0.1225    0.0000 C   0  0
    9.6214    0.7024    0.0000 N   0  0
    7.4319   -6.3378    0.0000 C   0  0
    3.1497  -10.4696    0.0000 C   0  0
 12 13  1  0
  6  7  1  0
 13 14  2  0
 14  9  1  0
  3  4  1  0
 12 15  1  0
  6  8  2  0
 15 16  1  0
 16 17  1  0
  7  9  1  0
 17 18  1  0
  4  5  1  0
 17 19  2  0
 18 20  1  0
  9 10  2  0
  1  3  1  0
 10 11  1  0
 74 76  2  0
 75 93  1  0
 75 77  1  6
 93 78  1  0
 78 79  2  0
 78 80  1  0
 80 94  1  0
 94 81  1  0
 81 82  1  0
 81 83  2  0
 82 84  1  1
 84 85  1  0
 84 86  1  0
 82 95  1  0
 24 26  1  0
 26 25  2  0
 24 27  1  1
 27 28  1  0
 28 29  1  0
 66 97  2  0
 99 30  1  0
 30 32  1  0
 97 98  1  0
102 66  1  0
 32 31  2  0
103 98  1  0
100 33  1  0
 33 35  1  0
 35 34  2  0
 59 38  1  0
 33 36  1  1
 36 37  1  0
 24 38  1  0
 26 99  1  0
 32100  1  0
 35101  1  0
 39 41  1  0
102103  2  0
 41 40  2  0
103104  1  0
 39 42  1  6
104105  2  0
 43 45  1  0
105106  1  0
 45 44  2  0
106107  2  0
107102  1  0
 43 46  1  0
 42108  1  0
 46 47  1  0
108109  2  0
 46 48  1  0
108110  1  0
 41 88  1  0
 87111  1  0
 43 88  1  1
111112  1  0
 87 39  1  0
111113  2  0
 49 50  1  0
112114  1  1
 50 89  1  0
112115  1  0
 51 52  1  0
114116  1  0
 52 53  1  0
116117  2  0
 53 54  1  0
117118  1  0
 55 54  1  0
118119  2  0
 56 95  1  0
119120  1  0
 91 57  1  0
120121  2  0
121116  1  0
 56 62  1  0
115  1  1  0
 58 90  1  0
 57 58  1  0
 90 51  1  0
 30122  1  6
 55 49  1  0
 50 59  1  6
122123  1  0
 59 60  2  0
 77124  1  0
 52 96  1  6
124125  1  0
 96 45  1  0
124126  1  0
127128  1  0
 51 61  2  0
 91 62  1  0
 58 63  1  1
 57 64  2  0
 62 65  1  1
128129  1  0
129130  1  0
130131  1  0
131127  1  0
 65 66  1  0
128132  1  6
 56 67  2  0
 71133  1  0
133134  2  0
 89 68  1  0
 68 69  2  0
 68 70  1  0
 70 71  1  1
134135  1  0
135136  2  0
136137  1  0
137133  1  0
 70 92  1  0
 80138  1  0
 92 72  1  0
138139  1  0
128 72  1  0
138140  1  6
 72 73  2  0
 80141  1  6
127 74  1  0
 29142  1  0
 74 75  1  0
142143  1  0
 20 21  1  0
 37144  1  0
 21 22  1  0
 63145  1  0
 22 18  1  0
145146  1  0
  5  6  1  0
146147  1  0
 20 23  2  0
147148  1  0
 11 12  2  0
122149  1  0
  1  2  2  0
144150  1  0
M  END