
  SciTegic04021211102D

 29 31  0  0  0  0            999 V2000
   -4.2833   -6.0250    0.0000 C   0  0
   -4.2833   -6.8500    0.0000 C   0  0
   -3.5713   -7.2583    0.0000 N   0  0
   -2.8593   -6.8500    0.0000 C   0  0  1  0  0  0
   -2.8593   -6.0250    0.0000 C   0  0
   -3.5713   -5.6083    0.0000 C   0  0
   -2.1454   -7.2635    0.0000 C   0  0  1  0  0  0
   -2.1466   -8.0885    0.0000 N   0  0
   -1.4304   -6.8521    0.0000 C   0  0
   -0.7181   -7.2665    0.0000 C   0  0
   -0.0036   -6.8557    0.0000 C   0  0
   -0.0019   -6.0298    0.0000 C   0  0
   -0.7208   -5.6165    0.0000 C   0  0
   -1.4325   -6.0296    0.0000 C   0  0
   -1.4327   -8.5021    0.0000 C   0  0
   -1.4339   -9.3271    0.0000 C   0  0
   -0.7177   -8.0906    0.0000 O   0  0
   -2.1492   -9.7362    0.0000 C   0  0
   -2.1508  -10.5604    0.0000 C   0  0
   -1.4364  -10.9748    0.0000 C   0  0
   -0.7189  -10.5589    0.0000 C   0  0
   -0.7209   -9.7360    0.0000 C   0  0
   -0.0075   -9.3216    0.0000 I   0  0
   -0.0036  -10.9699    0.0000 C   0  0
   -0.0019  -11.7949    0.0000 F   0  0
    0.7100  -10.5559    0.0000 F   0  0
    0.7083  -11.3792    0.0000 F   0  0
   -2.8667   -7.6750    0.0000 H   0  0
   -3.5713   -8.0833    0.0000 C   0  0
 14  9  1  0
  4  7  1  0
  8 15  1  0
  1  2  1  0
 15 16  1  0
  7  8  1  6
 15 17  2  0
  1  6  1  0
 16 18  2  0
  7  9  1  0
 18 19  1  0
  2  3  1  0
 19 20  2  0
  9 10  2  0
 20 21  1  0
  3  4  1  0
 21 22  2  0
 22 16  1  0
 10 11  1  0
 22 23  1  0
  4  5  1  0
 21 24  1  0
 11 12  2  0
 24 25  1  0
  5  6  1  0
 24 26  1  0
 12 13  1  0
 24 27  1  0
  4 28  1  6
 13 14  2  0
  3 29  1  0
M  ISO  1  23 125
M  END