
          05080814042D 1   1.00000     0.00000     0

 37 42  0     1  0            999 V2000
   -5.0789   -5.1920    0.0000 C   0  0  0  0  0  0           0  0  0
   -5.7893   -5.6066    0.0000 C   0  0  0  0  0  0           0  0  0
   -5.7823   -6.4325    0.0000 C   0  0  0  0  0  0           0  0  0
   -5.0688   -6.8357    0.0000 C   0  0  0  0  0  0           0  0  0
   -4.3660   -5.5990    0.0000 C   0  0  0  0  0  0           0  0  0
   -4.3599   -6.4261    0.0000 C   0  0  0  0  0  0           0  0  0
   -3.6445   -6.8323    0.0000 C   0  0  0  0  0  0           0  0  0
   -3.6566   -5.1778    0.0000 C   0  0  0  0  0  0           0  0  0
   -2.9365   -5.5885    0.0000 C   0  0  2  0  0  0           0  0  0
   -2.9320   -6.4177    0.0000 C   0  0  2  0  0  0           0  0  0
   -2.2155   -6.8260    0.0000 N   0  0  3  0  0  0           0  0  0
   -1.4991   -6.4099    0.0000 C   0  0  0  0  0  0           0  0  0
   -1.5036   -5.5807    0.0000 C   0  0  1  0  0  0           0  0  0
   -2.2246   -5.1677    0.0000 C   0  0  0  0  0  0           0  0  0
   -2.9443   -4.7600    0.0000 H   0  0  0  0  0  0           0  0  0
   -2.9402   -7.2420    0.0000 H   0  0  0  0  0  0           0  0  0
   -0.7914   -5.1652    0.0000 C   0  0  0  0  0  0           0  0  0
   -0.0755   -5.5743    0.0000 N   0  0  3  0  0  0           0  0  0
   -0.7951   -4.3406    0.0000 O   0  0  0  0  0  0           0  0  0
   -0.0778   -6.4020    0.0000 C   0  0  0  0  0  0           0  0  0
    0.6341   -6.8110    0.0000 C   0  0  0  0  0  0           0  0  0
    1.3488   -6.3991    0.0000 N   0  0  3  0  0  0           0  0  0
    1.3471   -5.5735    0.0000 C   0  0  0  0  0  0           0  0  0
    0.6307   -5.1599    0.0000 C   0  0  0  0  0  0           0  0  0
   -5.0828   -4.3674    0.0000 O   0  0  0  0  0  0           0  0  0
   -5.7990   -3.9585    0.0000 C   0  0  0  0  0  0           0  0  0
   -2.2121   -7.6506    0.0000 C   0  0  0  0  0  0           0  0  0
    2.0631   -6.8108    0.0000 C   0  0  0  0  0  0           0  0  0
    2.0592   -7.6346    0.0000 N   0  0  0  0  0  0           0  0  0
    2.7728   -8.0463    0.0000 C   0  0  0  0  0  0           0  0  0
    2.7703   -6.3967    0.0000 C   0  0  0  0  0  0           0  0  0
    3.4844   -6.8046    0.0000 C   0  0  0  0  0  0           0  0  0
    3.4873   -7.6317    0.0000 C   0  0  0  0  0  0           0  0  0
    4.2038   -8.0409    0.0000 N   0  0  0  0  0  0           0  0  0
    4.9179   -7.6241    0.0000 C   0  0  0  0  0  0           0  0  0
    4.9109   -6.7940    0.0000 C   0  0  0  0  0  0           0  0  0
    4.1938   -6.3886    0.0000 N   0  0  0  0  0  0           0  0  0
  7 10  1  0     0  0
 17 18  1  0     0  0
  9  8  1  0     0  0
 17 19  2  0     0  0
 18 20  1  0     0  0
  9 10  1  0     0  0
  3  4  2  0     0  0
  4  6  1  0     0  0
  5  6  2  0     0  0
  1  2  2  0     0  0
 18 24  1  0     0  0
 20 21  1  0     0  0
 21 22  1  0     0  0
 22 23  1  0     0  0
 23 24  1  0     0  0
  5  1  1  0     0  0
  1 25  1  0     0  0
  2  3  1  0     0  0
 25 26  1  0     0  0
  9 14  1  0     0  0
 11 27  1  0     0  0
 10 11  1  0     0  0
 22 28  1  0     0  0
 11 12  1  0     0  0
 28 29  2  0     0  0
 12 13  1  0     0  0
 29 30  1  0     0  0
 30 33  2  0     0  0
 13 14  1  0     0  0
 32 31  2  0     0  0
 31 28  1  0     0  0
  9 15  1  6     0  0
 32 33  1  0     0  0
  5  8  1  0     0  0
 33 34  1  0     0  0
 10 16  1  1     0  0
 34 35  2  0     0  0
  6  7  1  0     0  0
 35 36  1  0     0  0
 13 17  1  1     0  0
 36 37  2  0     0  0
 37 32  1  0     0  0
M  END