
          11280715512D 1   1.00000     0.00000     0

 29 32  0     0  0            999 V2000
   -4.5598   -7.3541    0.0000 C   0  0  0  0  0  0           0  0  0
   -4.5609   -8.1815    0.0000 C   0  0  0  0  0  0           0  0  0
   -3.8461   -8.5944    0.0000 C   0  0  0  0  0  0           0  0  0
   -3.8479   -6.9414    0.0000 C   0  0  0  0  0  0           0  0  0
   -3.1325   -7.3505    0.0000 C   0  0  0  0  0  0           0  0  0
   -3.1318   -8.1773    0.0000 C   0  0  0  0  0  0           0  0  0
   -2.4165   -8.5883    0.0000 N   0  0  0  0  0  0           0  0  0
   -1.7014   -8.1735    0.0000 C   0  0  0  0  0  0           0  0  0
   -1.7062   -7.3436    0.0000 C   0  0  0  0  0  0           0  0  0
   -2.4221   -6.9363    0.0000 N   0  0  0  0  0  0           0  0  0
   -0.9854   -8.5833    0.0000 O   0  0  0  0  0  0           0  0  0
   -0.9943   -6.9267    0.0000 C   0  0  0  0  0  0           0  0  0
   -0.2773   -7.3349    0.0000 N   0  0  0  0  0  0           0  0  0
   -0.9993   -6.1017    0.0000 O   0  0  0  0  0  0           0  0  0
    0.4347   -6.9180    0.0000 C   0  0  0  0  0  0           0  0  0
    1.1494   -7.3296    0.0000 C   0  0  0  0  0  0           0  0  0
    1.8608   -6.9134    0.0000 C   0  0  0  0  0  0           0  0  0
    1.8562   -6.0876    0.0000 C   0  0  0  0  0  0           0  0  0
    1.1343   -5.6796    0.0000 C   0  0  0  0  0  0           0  0  0
    0.4257   -6.0981    0.0000 C   0  0  0  0  0  0           0  0  0
    2.5676   -5.6698    0.0000 O   0  0  0  0  0  0           0  0  0
   -0.9821   -9.4083    0.0000 C   0  0  0  0  0  0           0  0  0
    1.1263   -4.8547    0.0000 C   0  0  0  0  0  0           0  0  0
    1.8368   -4.4353    0.0000 N   0  0  3  0  0  0           0  0  0
    2.5892   -4.7643    0.0000 C   0  0  0  0  0  0           0  0  0
    3.1353   -4.1459    0.0000 C   0  0  0  0  0  0           0  0  0
    2.7159   -3.4354    0.0000 C   0  0  0  0  0  0           0  0  0
    1.9107   -3.6148    0.0000 C   0  0  0  0  0  0           0  0  0
   -1.6950   -9.8235    0.0000 C   0  0  0  0  0  0           0  0  0
 12 14  2  0     0  0
  6  7  2  0     0  0
 13 15  1  0     0  0
  1  2  1  0     0  0
 15 16  2  0     0  0
  7  8  1  0     0  0
 16 17  1  0     0  0
  5  4  1  0     0  0
 17 18  2  0     0  0
  8  9  2  0     0  0
 18 19  1  0     0  0
  4  1  2  0     0  0
 19 20  2  0     0  0
 20 15  1  0     0  0
  9 10  1  0     0  0
 18 21  1  0     0  0
 10  5  2  0     0  0
 11 22  1  0     0  0
 19 23  1  0     0  0
  8 11  1  0     0  0
 23 24  1  0     0  0
 24 25  1  0     0  0
  2  3  2  0     0  0
  9 12  1  0     0  0
  5  6  1  0     0  0
 12 13  1  0     0  0
 25 26  1  0     0  0
 26 27  1  0     0  0
 27 28  1  0     0  0
 28 24  1  0     0  0
  3  6  1  0     0  0
 22 29  1  0     0  0
M  END