
  SciTegic02231516322D

 17 16  0  0  0  0            999 V2000
    4.1399   -3.6414    0.0000 C   0  0
    4.1388   -4.4687    0.0000 C   0  0
    4.8535   -4.8816    0.0000 C   0  0
    5.5700   -4.4682    0.0000 C   0  0
    5.5671   -3.6378    0.0000 C   0  0
    4.8518   -3.2287    0.0000 C   0  0
    6.2851   -4.8796    0.0000 C   0  0
    6.2863   -5.7045    0.0000 O   0  0
    6.9988   -4.4660    0.0000 C   0  0
    7.7139   -4.8774    0.0000 N   0  0
    8.4276   -4.4638    0.0000 C   0  0
    9.1428   -4.8751    0.0000 C   0  0
    8.4264   -3.6388    0.0000 C   0  0
    6.2799   -3.2226    0.0000 O   0  0
    6.2769   -2.3976    0.0000 C   0  0
    3.4254   -3.2291    0.0000 Br  0  0
    9.7527   -2.4161    0.0000 Cl  0  0
  1  2  2  0
  2  3  1  0
  3  4  2  0
  4  5  1  0
  5  6  2  0
  6  1  1  0
  4  7  1  0
  7  8  1  0
  7  9  1  0
  9 10  1  0
 10 11  1  0
 11 12  1  0
 11 13  1  0
  5 14  1  0
 14 15  1  0
  1 16  1  0
M  END