
  SciTegic12121611592D

 80 89  0  0  0  0            999 V2000
   11.0306  -21.9977    0.0000 C   0  0  1  0  0  0
    9.7069  -21.2505    0.0000 C   0  0  1  0  0  0
    9.6912  -19.6915    0.0000 C   0  0  2  0  0  0
   11.0243  -18.9166    0.0000 C   0  0
   12.3909  -21.2153    0.0000 C   0  0  1  0  0  0
   12.3480  -19.6638    0.0000 C   0  0  1  0  0  0
   13.7082  -18.8814    0.0000 C   0  0  1  0  0  0
   15.0581  -19.6432    0.0000 C   0  0
   13.7407  -21.9771    0.0000 C   0  0
   15.0825  -21.2072    0.0000 C   0  0
   16.4410  -21.9740    0.0000 C   0  0
   16.4665  -23.5156    0.0000 C   0  0
   15.1237  -24.3079    0.0000 C   0  0
   13.7651  -23.5411    0.0000 C   0  0
   15.1352  -25.5078    0.0000 O   0  0
   11.2210  -21.2674    0.0000 O   0  0
   11.8167  -20.2257    0.0000 C   0  0
    8.3878  -18.9486    0.0000 C   0  0
    8.3816  -17.7486    0.0000 O   0  0
    7.0918  -19.7054    0.0000 N   0  0
   10.5625  -20.2636    0.0000 C   0  0
   11.4073  -20.7404    0.0000 C   0  0
   11.8500  -23.7807    0.0000 O   0  0
   10.2948  -22.6748    0.0000 H   0  0
   13.6868  -20.4654    0.0000 C   0  0
   14.7311  -18.5745    0.0000 C   0  0
   13.6800  -17.3038    0.0000 N   0  0
   13.2635  -16.1784    0.0000 C   0  0
    5.7879  -18.9621    0.0000 C   0  0
    4.4918  -19.7188    0.0000 C   0  0
    3.1879  -18.9756    0.0000 C   0  0
    1.8919  -19.7323    0.0000 C   0  0
   12.8354  -18.3934    0.0000 H   0  0
    0.5880  -18.9891    0.0000 C   0  0
   -0.7081  -19.7458    0.0000 C   0  0
   -2.0119  -19.0026    0.0000 N   0  0
   -3.3080  -19.7593    0.0000 C   0  0
   -4.6119  -19.0161    0.0000 C   0  0
   -3.3028  -20.7593    0.0000 O   0  0
   -5.9080  -19.7728    0.0000 C   0  0
   -7.2118  -19.0296    0.0000 C   0  0
   -8.5079  -19.7863    0.0000 C   0  0
   -9.8118  -19.0431    0.0000 C   0  0
  -11.1079  -19.7998    0.0000 N   0  3
  -13.4445  -20.2966    0.0000 C   0  0
  -12.4349  -19.1836    0.0000 C   0  0
  -12.6992  -21.5906    0.0000 C   0  0
  -11.2378  -21.2755    0.0000 C   0  0
  -10.2164  -22.3794    0.0000 C   0  0
  -10.6882  -23.8241    0.0000 C   0  0
  -12.1496  -24.1392    0.0000 C   0  0
  -13.1748  -23.0174    0.0000 C   0  0
  -14.1376  -21.2761    0.0000 C   0  0
  -13.9138  -19.1921    0.0000 C   0  0
  -12.7211  -17.7129    0.0000 C   0  0
  -11.5891  -16.7275    0.0000 C   0  0
  -11.8755  -15.2542    0.0000 C   0  0
  -12.5996  -25.5709    0.0000 S   0  0
  -13.7710  -25.8315    0.0000 O   0  0
  -11.7886  -26.4554    0.0000 O   0  0
  -12.9598  -26.7156    0.0000 O   0  0
  -10.7435  -14.2688    0.0000 C   0  0
  -11.0300  -12.7956    0.0000 C   0  0
   -9.8980  -11.8102    0.0000 C   0  0
   -8.4769  -12.1553    0.0000 C   0  0
  -10.0431  -10.3281    0.0000 N   0  0
   -8.6667   -9.7486    0.0000 C   0  0
   -7.6938  -10.8837    0.0000 C   0  0
   -6.2126  -10.6227    0.0000 C   0  0
   -5.7143   -9.1870    0.0000 C   0  0
   -6.6872   -8.0519    0.0000 C   0  0
   -8.1822   -8.3248    0.0000 C   0  0
  -11.3321   -9.5646    0.0000 C   0  0
  -12.3783  -10.1523    0.0000 C   0  0
   -7.2853  -12.2970    0.0000 C   0  0
   -9.2237  -13.0946    0.0000 C   0  0
   -4.2410   -8.9011    0.0000 S   0  0
   -3.9155   -7.9555    0.0000 O   0  0
   -3.4533   -9.8063    0.0000 O   0  0
   -3.0631   -8.6717    0.0000 O   0  0
  1  2  1  0
  1  5  1  0
  2  3  1  0
  3  4  1  0
  4  6  1  0
  5  6  1  0
  5  9  1  0
  6  7  1  0
  7  8  1  0
  8 10  1  0
  9 10  2  0
 10 11  1  0
 11 12  2  0
 12 13  1  0
 13 14  2  0
 14  9  1  0
 13 15  1  0
  2 16  1  1
 16 17  1  0
  3 18  1  1
 18 19  2  0
 18 20  1  0
  2 21  1  0
  6 22  1  1
 21 22  1  0
 14 23  1  0
 23  1  1  0
  1 24  1  6
  5 25  1  6
 25 26  1  0
 26 27  1  0
  7 27  1  0
 27 28  1  0
 20 29  1  0
 29 30  1  0
 30 31  1  0
 31 32  1  0
  7 33  1  1
 32 34  1  0
 34 35  1  0
 35 36  1  0
 36 37  1  0
 37 38  1  0
 37 39  2  0
 38 40  1  0
 40 41  1  0
 41 42  1  0
 42 43  1  0
 43 44  1  0
 44 48  1  0
 47 45  1  0
 45 46  1  0
 46 44  2  0
 47 48  2  0
 48 49  1  0
 49 50  2  0
 50 51  1  0
 51 52  2  0
 52 47  1  0
 45 53  1  0
 45 54  1  0
 46 55  1  0
 55 56  2  0
 56 57  1  0
 51 58  1  0
 58 59  1  0
 58 60  2  0
 58 61  2  0
 57 62  2  0
 62 63  1  0
 63 64  2  0
 64 65  1  0
 65 68  1  0
 67 66  1  0
 66 64  1  0
 67 68  2  0
 68 69  1  0
 69 70  2  0
 70 71  1  0
 71 72  2  0
 72 67  1  0
 66 73  1  0
 73 74  1  0
 65 75  1  0
 65 76  1  0
 70 77  1  0
 77 78  1  0
 77 79  2  0
 77 80  2  0
M  CHG  1  44   1
M  END