
  SciTegic12231509382D

 29 31  0  0  0  0            999 V2000
    4.0782   -6.3934    0.0000 N   0  0
    4.8094   -6.0112    0.0000 C   0  0
    4.6718   -5.1978    0.0000 C   0  0
    3.8556   -5.0772    0.0000 C   0  0
    3.4888   -5.8161    0.0000 C   0  0
    5.2490   -4.6083    0.0000 C   0  0
    5.0272   -3.8137    0.0000 O   0  0
    6.0481   -4.8136    0.0000 N   0  0
    3.4735   -4.3461    0.0000 C   0  0
    5.5482   -6.3781    0.0000 C   0  0
    2.6753   -5.9537    0.0000 C   0  0
    2.4425   -8.0757    0.0000 N   0  0
    2.9204   -7.4033    0.0000 C   0  0
    2.4286   -6.7409    0.0000 C   0  0
    1.6466   -7.0041    0.0000 C   0  0
    0.9279   -6.5990    0.0000 C   0  0
    0.2177   -7.0189    0.0000 C   0  0
    0.2263   -7.8439    0.0000 C   0  0
    0.9451   -8.2489    0.0000 C   0  0
    1.6553   -7.8290    0.0000 C   0  0
    3.7453   -7.3947    0.0000 O   0  0
   -0.5009   -6.6139    0.0000 I   0  0
    6.6253   -4.2241    0.0000 C   0  0
    7.4244   -4.4293    0.0000 C   0  0
    8.0016   -3.8400    0.0000 N   0  0
    8.8007   -4.0452    0.0000 C   0  0
    9.0225   -4.8398    0.0000 C   0  0
    7.7798   -3.0453    0.0000 C   0  0
    8.3571   -2.4559    0.0000 C   0  0
  1  2  1  0
  2  3  2  0
  3  4  1  0
  4  5  2  0
  1  5  1  0
  6  7  2  0
  6  8  1  0
  3  6  1  0
  4  9  1  0
  2 10  1  0
 12 13  1  0
 13 14  1  0
 14 15  1  0
 15 16  1  0
 16 17  2  0
 17 18  1  0
 18 19  2  0
 19 20  1  0
 12 20  1  0
 15 20  2  0
 13 21  2  0
 17 22  1  0
 11 14  2  0
  5 11  1  0
 23 24  1  0
 26 27  1  0
 25 26  1  0
 28 29  1  0
 25 28  1  0
 24 25  1  0
  8 23  1  0
M  END