
  Mrv0541 04051115152D          

 38 40  0  0  0  0            999 V2000
   -4.4671   -0.6404    0.0000 C   0  0  0  0  0  0  0  0  0  0  0  0
   -4.2689   -1.4412    0.0000 C   0  0  0  0  0  0  0  0  0  0  0  0
   -4.8634   -2.0132    0.0000 C   0  0  0  0  0  0  0  0  0  0  0  0
   -5.6560   -1.7844    0.0000 C   0  0  0  0  0  0  0  0  0  0  0  0
   -5.8542   -0.9836    0.0000 C   0  0  0  0  0  0  0  0  0  0  0  0
   -5.2597   -0.4115    0.0000 C   0  0  0  0  0  0  0  0  0  0  0  0
   -4.0707    0.7325    0.0000 C   0  0  0  0  0  0  0  0  0  0  0  0
   -4.8634    0.9613    0.0000 C   0  0  0  0  0  0  0  0  0  0  0  0
   -5.0615    1.7622    0.0000 C   0  0  0  0  0  0  0  0  0  0  0  0
   -4.4671    2.3342    0.0000 C   0  0  0  0  0  0  0  0  0  0  0  0
   -3.6744    2.1054    0.0000 C   0  0  0  0  0  0  0  0  0  0  0  0
   -3.4763    1.3046    0.0000 C   0  0  0  0  0  0  0  0  0  0  0  0
   -3.8726   -0.0683    0.0000 C   0  0  0  0  0  0  0  0  0  0  0  0
   -3.0800   -0.2971    0.0000 C   0  0  0  0  0  0  0  0  0  0  0  0
   -2.4855    0.2749    0.0000 C   0  0  0  0  0  0  0  0  0  0  0  0
   -1.6928    0.0461    0.0000 N   0  0  0  0  0  0  0  0  0  0  0  0
   -1.0984    0.6181    0.0000 C   0  0  0  0  0  0  0  0  0  0  0  0
   -0.3057    0.3893    0.0000 C   0  0  0  0  0  0  0  0  0  0  0  0
    0.2887    0.9613    0.0000 C   0  0  0  0  0  0  0  0  0  0  0  0
    1.0814    0.7325    0.0000 N   0  0  0  0  0  0  0  0  0  0  0  0
    1.2795   -0.0683    0.0000 C   0  0  2  0  0  0  0  0  0  0  0  0
    0.6851   -0.6404    0.0000 C   0  0  0  0  0  0  0  0  0  0  0  0
    2.0722   -0.2971    0.0000 C   0  0  0  0  0  0  0  0  0  0  0  0
    2.6666    0.2749    0.0000 C   0  0  0  0  0  0  0  0  0  0  0  0
    3.4593    0.0461    0.0000 C   0  0  0  0  0  0  0  0  0  0  0  0
    3.6574   -0.7548    0.0000 C   0  0  0  0  0  0  0  0  0  0  0  0
    3.0630   -1.3268    0.0000 C   0  0  0  0  0  0  0  0  0  0  0  0
    2.2703   -1.0980    0.0000 C   0  0  0  0  0  0  0  0  0  0  0  0
    4.0538    0.6181    0.0000 O   0  0  0  0  0  0  0  0  0  0  0  0
    3.8556    1.4190    0.0000 C   0  0  0  0  0  0  0  0  0  0  0  0
    4.4501    1.9910    0.0000 C   0  0  0  0  0  0  0  0  0  0  0  0
    4.2519    2.7919    0.0000 C   0  0  0  0  0  0  0  0  0  0  0  0
    4.8464    3.3639    0.0000 C   0  0  0  0  0  0  0  0  0  0  0  0
    4.4501   -0.9836    0.0000 O   0  0  0  0  0  0  0  0  0  0  0  0
    4.6482   -1.7844    0.0000 C   0  0  0  0  0  0  0  0  0  0  0  0
    5.4409   -2.0132    0.0000 C   0  0  0  0  0  0  0  0  0  0  0  0
    5.6390   -2.8141    0.0000 C   0  0  0  0  0  0  0  0  0  0  0  0
    6.4317   -3.0429    0.0000 C   0  0  0  0  0  0  0  0  0  0  0  0
  1  2  2  0  0  0  0
  1  6  1  0  0  0  0
 13  1  1  0  0  0  0
  2  3  1  0  0  0  0
  3  4  2  0  0  0  0
  4  5  1  0  0  0  0
  5  6  2  0  0  0  0
  7  8  2  0  0  0  0
  7 12  1  0  0  0  0
 13  7  1  0  0  0  0
  8  9  1  0  0  0  0
  9 10  2  0  0  0  0
 10 11  1  0  0  0  0
 11 12  2  0  0  0  0
 13 14  1  0  0  0  0
 14 15  1  0  0  0  0
 15 16  1  0  0  0  0
 17 16  1  0  0  0  0
 17 18  1  0  0  0  0
 18 19  1  0  0  0  0
 19 20  1  0  0  0  0
 21 20  1  0  0  0  0
 21 22  1  1  0  0  0
 23 21  1  0  0  0  0
 23 24  2  0  0  0  0
 23 28  1  0  0  0  0
 24 25  1  0  0  0  0
 25 26  2  0  0  0  0
 25 29  1  0  0  0  0
 26 27  1  0  0  0  0
 26 34  1  0  0  0  0
 27 28  2  0  0  0  0
 30 29  1  0  0  0  0
 30 31  1  0  0  0  0
 31 32  1  0  0  0  0
 32 33  1  0  0  0  0
 35 34  1  0  0  0  0
 35 36  1  0  0  0  0
 36 37  1  0  0  0  0
 37 38  1  0  0  0  0
M  END