
  SciTegic12231509382D

 30 34  0  0  0  0            999 V2000
   -0.2946    4.7973    0.0000 N   0  0
   -0.9621    4.3124    0.0000 C   0  0
   -0.7071    3.5278    0.0000 C   0  0
    0.1179    3.5278    0.0000 C   0  0
    0.3728    4.3124    0.0000 C   0  0
    1.1574    4.5673    0.0000 O   0  0
   -1.7467    4.5673    0.0000 O   0  0
   -1.1921    2.8604    0.0000 C   0  0
    0.6028    2.8604    0.0000 C   0  0
   -2.0171    2.8603    0.0000 C   0  0
   -2.2720    2.0758    0.0000 C   0  0
   -1.6045    1.5908    0.0000 N   0  0
   -0.9371    2.0757    0.0000 C   0  0
    0.3479    2.0757    0.0000 C   0  0
    1.0153    1.5908    0.0000 N   0  0
    1.6827    2.0758    0.0000 C   0  0
    1.4278    2.8603    0.0000 C   0  0
    1.9798    3.4735    0.0000 C   0  0
    2.7868    3.3020    0.0000 C   0  0
    3.0417    2.5174    0.0000 C   0  0
    2.4897    1.9043    0.0000 C   0  0
   -2.5691    3.4735    0.0000 C   0  0
   -3.3761    3.3019    0.0000 C   0  0
   -3.6310    2.5173    0.0000 C   0  0
   -3.0790    1.9042    0.0000 C   0  0
   -1.6045    0.7658    0.0000 C   0  0
    1.0153    0.7658    0.0000 C   0  0
    1.7297    0.3533    0.0000 C   0  0
    1.7297   -0.4717    0.0000 C   0  0
    2.4442   -0.8842    0.0000 N   0  0
  1  2  1  0
  2  3  1  0
  3  4  2  0
  4  5  1  0
  1  5  1  0
  5  6  2  0
  2  7  2  0
  3  8  1  0
  4  9  1  0
  8 10  1  0
  8 13  2  0
 11 12  1  0
 12 13  1  0
  9 14  2  0
  9 17  1  0
 14 15  1  0
 15 16  1  0
 21 16  1  0
 16 17  2  0
 17 18  1  0
 18 19  2  0
 19 20  1  0
 20 21  2  0
 10 22  1  0
 11 10  2  0
 25 11  1  0
 22 23  2  0
 23 24  1  0
 24 25  2  0
 12 26  1  0
 15 27  1  0
 27 28  1  0
 28 29  1  0
 29 30  1  0
M  END