
  SciTegic05171617292D

 19 20  0  0  0  0            999 V2000
    7.7091   -9.5781    0.0000 N   0  0
    7.0051   -8.6063    0.0000 C   0  0
    5.5122   -8.7602    0.0000 C   0  0
    4.6332   -7.5468    0.0000 N   0  0
    3.1332   -7.5416    0.0000 C   0  0
    2.4245   -8.5100    0.0000 S   0  0
    2.6747   -6.1134    0.0000 S   0  0
    3.8912   -5.2578    0.0000 C   0  0
    3.8933   -3.7570    0.0000 C   0  0
    2.5951   -3.0039    0.0000 C   0  0
    2.5973   -1.5031    0.0000 C   0  0
    1.2990   -0.7500    0.0000 C   0  0
    1.2990    0.7500    0.0000 C   0  0
    0.0000    1.5000    0.0000 C   0  0
   -1.2990    0.7500    0.0000 C   0  0
   -1.2990   -0.7500    0.0000 C   0  0
    0.0000   -1.5000    0.0000 C   0  0
    5.1017   -6.1218    0.0000 C   0  0
    6.2421   -5.7482    0.0000 O   0  0
  1  2  1  0
  2  3  1  0
  3  4  1  0
  4  5  1  0
  5  6  2  0
  5  7  1  0
  7  8  1  0
  8  9  2  0
  9 10  1  0
 10 11  2  0
 11 12  1  0
 12 13  2  0
 13 14  1  0
 14 15  2  0
 15 16  1  0
 16 17  2  0
 12 17  1  0
  8 18  1  0
  4 18  1  0
 18 19  2  0
M  END