
  CDK    12/20/10,14:45

 23 23  0  0  0  0  0  0  0  0999 V2000
   13.2875   -7.6875    0.0000 C   0  0  0  0  0  0  0  0  0  0  0  0
   12.5875   -7.2625    0.0000 C   0  0  0  0  0  0  0  0  0  0  0  0
   14.0292   -6.4625    0.0000 C   0  0  0  0  0  0  0  0  0  0  0  0
   14.0083   -7.2875    0.0000 C   0  0  0  0  0  0  0  0  0  0  0  0
   13.9833   -8.9375    0.0000 P   0  0  0  0  0  0  0  0  0  0  0  0
   11.8542   -8.4917    0.0000 P   0  0  0  0  0  0  0  0  0  0  0  0
   14.7625   -5.2375    0.0000 P   0  0  0  0  0  0  0  0  0  0  0  0
   13.2750   -8.5125    0.0000 O   0  0  0  0  0  0  0  0  0  0  0  0
   12.5958   -6.4417    0.0000 C   0  0  0  0  0  0  0  0  0  0  0  0
   13.3167   -6.0417    0.0000 C   0  0  0  0  0  0  0  0  0  0  0  0
   11.8667   -7.6667    0.0000 O   0  0  0  0  0  0  0  0  0  0  0  0
   14.7500   -6.0625    0.0000 O   0  0  0  0  0  0  0  0  0  0  0  0
   14.0542   -4.8125    0.0000 O   0  0  0  0  0  0  0  0  0  0  0  0
   12.5583   -8.9125    0.0000 O   0  0  0  0  0  0  0  0  0  0  0  0
   13.9667   -9.7625    0.0000 O   0  0  0  0  0  0  0  0  0  0  0  0
   11.4292   -9.2000    0.0000 O   0  0  0  0  0  0  0  0  0  0  0  0
   11.0250   -8.4792    0.0000 O   0  0  0  0  0  0  0  0  0  0  0  0
   14.8083   -8.9458    0.0000 O   0  0  0  0  0  0  0  0  0  0  0  0
   15.5875   -5.2208    0.0000 O   0  0  0  0  0  0  0  0  0  0  0  0
   14.4042   -8.2250    0.0000 O   0  0  0  0  0  0  0  0  0  0  0  0
   15.1625   -4.5125    0.0000 O   0  0  0  0  0  0  0  0  0  0  0  0
   14.7167   -7.7125    0.0000 O   0  0  0  0  0  0  0  0  0  0  0  0
   11.8875   -6.0208    0.0000 O   0  0  0  0  0  0  0  0  0  0  0  0
  2  1  1  0  0  0  0 
  3  4  1  0  0  0  0 
  4  1  1  0  0  0  0 
  5  8  1  0  0  0  0 
  6 11  1  0  0  0  0 
  7 12  1  0  0  0  0 
  1  8  1  1  0  0  0 
  9  2  1  0  0  0  0 
 10  9  1  0  0  0  0 
  2 11  1  6  0  0  0 
  3 12  1  1  0  0  0 
 13  7  2  0  0  0  0 
 14  6  2  0  0  0  0 
 15  5  2  0  0  0  0 
 16  6  1  0  0  0  0 
 17  6  1  0  0  0  0 
 18  5  1  0  0  0  0 
 19  7  1  0  0  0  0 
 20  5  1  0  0  0  0 
 21  7  1  0  0  0  0 
  4 22  1  6  0  0  0 
  9 23  1  1  0  0  0 
  3 10  1  0  0  0  0 
M  END