
  SciTegic09261414532D

 47 54  0  0  0  0            999 V2000
    8.0685  -15.3644    0.0000 N   0  0
    7.2828  -15.5718    0.0000 C   0  0
    7.2382  -16.3878    0.0000 N   0  0
    8.5158  -16.0471    0.0000 C   0  0
    8.0006  -16.6770    0.0000 C   0  0
    8.2887  -17.4360    0.0000 C   0  0
    9.0917  -17.5663    0.0000 C   0  0
    9.6058  -16.9316    0.0000 C   0  0
    9.3149  -16.1751    0.0000 C   0  0
    6.5228  -15.2768    0.0000 C   0  0
    6.4011  -14.4676    0.0000 C   0  0
    5.6409  -14.1700    0.0000 C   0  0
    5.0017  -14.6805    0.0000 C   0  0
    5.1277  -15.4922    0.0000 C   0  0
    5.8879  -15.7861    0.0000 C   0  0
    0.8034  -12.7902    0.0000 C   0  0
    0.8022  -13.6098    0.0000 C   0  0
    1.5103  -14.0187    0.0000 C   0  0
    1.5085  -12.3814    0.0000 C   0  0
    2.2171  -12.7866    0.0000 C   0  0
    2.2174  -13.6098    0.0000 C   0  0
    3.0003  -13.8640    0.0000 N   0  0
    3.4841  -13.1978    0.0000 C   0  0
    2.9999  -12.5321    0.0000 N   0  0
    3.2531  -14.6411    0.0000 C   0  0
    4.2980  -13.1961    0.0000 N   0  0
    4.7063  -13.9053    0.0000 C   0  0
    5.5227  -13.9054    0.0000 C   0  0
    5.9319  -13.1970    0.0000 C   0  0
    5.5186  -12.4871    0.0000 C   0  0
    4.7035  -12.4905    0.0000 C   0  0
    6.7490  -13.1956    0.0000 C   0  0
    7.1588  -13.9027    0.0000 O   0  0
    7.9760  -13.9013    0.0000 C   0  0
    2.7064  -15.2486    0.0000 C   0  0
    8.3858  -14.6083    0.0000 C   0  0
    7.1565  -12.4873    0.0000 O   0  0
    9.2002  -14.5577    0.0000 C   0  0
    9.6521  -15.2397    0.0000 C   0  0
   10.4641  -15.1896    0.0000 C   0  0
   10.8306  -14.4588    0.0000 C   0  0
   10.3787  -13.7768    0.0000 C   0  0
    9.5603  -13.8256    0.0000 C   0  0
    1.8968  -15.1665    0.0000 C   0  0
    1.5647  -15.9132    0.0000 S   0  0
    2.1721  -16.4599    0.0000 C   0  0
    2.8797  -16.0510    0.0000 C   0  0
  1  2  1  0
  2  3  2  0
  3  5  1  0
  4  1  1  0
  4  5  2  0
  5  6  1  0
  6  7  2  0
  7  8  1  0
  8  9  2  0
  9  4  1  0
 10 11  2  0
 11 12  1  0
 12 13  2  0
 13 14  1  0
 14 15  2  0
 15 10  1  0
  2 10  1  0
 16 17  2  0
 17 18  1  0
 18 21  2  0
 20 19  2  0
 19 16  1  0
 20 21  1  0
 21 22  1  0
 22 23  1  0
 23 24  2  0
 24 20  1  0
 22 25  1  0
 26 27  1  0
 27 28  1  0
 28 29  1  0
 29 30  1  0
 30 31  1  0
 31 26  1  0
 23 26  1  0
 29 32  1  0
 32 33  1  0
 33 34  1  0
 25 35  1  0
 34 36  1  0
 36  1  1  0
 32 37  2  0
 38 39  1  0
 38 43  1  0
 39 40  1  0
 40 41  1  0
 41 42  1  0
 42 43  1  0
 36 38  1  0
 35 44  2  0
 44 45  1  0
 45 46  1  0
 46 47  2  0
 47 35  1  0
M  END