
  SciTegic12231509382D

 23 25  0  0  1  0            999 V2000
    4.8750   -3.4250    0.0000 N   0  0
    4.2250   -3.9250    0.0000 C   0  0  1  0  0  0
    4.7292   -2.6125    0.0000 C   0  0
    5.4542   -2.2292    0.0000 C   0  0
    6.0500   -2.7917    0.0000 N   0  0
    3.9625   -4.7125    0.0000 C   0  0  1  0  0  0
    5.6875   -3.5292    0.0000 C   0  0
    3.5500   -3.4375    0.0000 O   0  0
    1.4625   -2.2667    0.0000 P   0  0
    2.8875   -3.9250    0.0000 C   0  0  1  0  0  0
    3.1375   -4.7125    0.0000 C   0  0  1  0  0  0
    5.4875   -1.4125    0.0000 C   0  0
    4.0375   -2.1875    0.0000 N   0  0
    4.7875   -0.9792    0.0000 N   0  0
    2.1667   -3.5125    0.0000 C   0  0
    4.0625   -1.3667    0.0000 C   0  0
    2.1750   -2.6875    0.0000 O   0  0
    0.7375   -1.8542    0.0000 O   0  0
    1.8750   -1.5542    0.0000 O   0  0
    4.4500   -5.3750    0.0000 O   0  0
    1.0500   -2.9875    0.0000 O   0  0
    6.2125   -1.0250    0.0000 N   0  0
    2.6542   -5.3750    0.0000 O   0  0
  2  1  1  1
  3  1  1  0
  4  3  2  0
  5  7  2  0
  6  2  1  0
  7  1  1  0
  8  2  1  0
  9 17  1  0
 10  8  1  0
 11  6  1  0
 12  4  1  0
 13  3  1  0
 14 16  1  0
 10 15  1  1
 16 13  2  0
 17 15  1  0
 18  9  1  0
 19  9  2  0
  6 20  1  6
 21  9  1  0
 22 12  1  0
 11 23  1  6
  4  5  1  0
 11 10  1  0
 14 12  2  0
M  END