
          03140815512D 1   1.00000     0.00000     0

 19 21  0     0  0            999 V2000
   -4.4333  -19.2347    0.0000 C   0  0  0  0  0  0           0  0  0
   -4.4346  -20.0622    0.0000 C   0  0  0  0  0  0           0  0  0
   -3.7217  -20.4751    0.0000 C   0  0  0  0  0  0           0  0  0
   -3.0024  -20.0618    0.0000 C   0  0  0  0  0  0           0  0  0
   -3.0055  -19.2307    0.0000 C   0  0  0  0  0  0           0  0  0
   -3.7236  -18.8219    0.0000 C   0  0  0  0  0  0           0  0  0
   -2.2910  -18.8139    0.0000 N   0  0  3  0  0  0           0  0  0
   -1.5358  -19.1456    0.0000 C   0  0  0  0  0  0           0  0  0
   -0.9868  -18.5299    0.0000 N   0  0  0  0  0  0           0  0  0
   -1.4028  -17.8175    0.0000 N   0  0  0  0  0  0           0  0  0
   -2.2088  -17.9931    0.0000 C   0  0  0  0  0  0           0  0  0
   -2.8247  -17.4442    0.0000 C   0  0  0  0  0  0           0  0  0
   -1.3603  -19.9518    0.0000 S   0  0  0  0  0  0           0  0  0
   -1.9705  -20.5068    0.0000 C   0  0  0  0  0  0           0  0  0
   -1.7951  -21.3128    0.0000 C   0  0  0  0  0  0           0  0  0
   -2.3445  -21.9322    0.0000 N   0  0  0  0  0  0           0  0  0
   -1.9285  -22.6446    0.0000 O   0  0  0  0  0  0           0  0  0
   -1.1224  -22.4690    0.0000 C   0  0  0  0  0  0           0  0  0
   -1.0403  -21.6482    0.0000 C   0  0  0  0  0  0           0  0  0
  8  9  2  0     0  0
  9 10  1  0     0  0
 10 11  2  0     0  0
 11  7  1  0     0  0
  5  7  1  0     0  0
  5  6  2  0     0  0
 11 12  1  0     0  0
  6  1  1  0     0  0
  8 13  1  0     0  0
  7  8  1  0     0  0
 13 14  1  0     0  0
  1  2  2  0     0  0
 14 15  1  0     0  0
 15 16  2  0     0  0
  3  4  2  0     0  0
  4  5  1  0     0  0
  2  3  1  0     0  0
 16 17  1  0     0  0
 17 18  1  0     0  0
 18 19  1  0     0  0
 19 15  1  0     0  0
M  END