
  SciTegic12211613362D

 31 33  0  0  0  0            999 V2000
    1.2990   -0.7500    0.0000 C   0  0
    1.2990    0.7500    0.0000 C   0  0
    0.0000    1.5000    0.0000 C   0  0
   -1.2990    0.7500    0.0000 C   0  0
   -1.2990   -0.7500    0.0000 C   0  0
    0.0000   -1.5000    0.0000 C   0  0
   -2.6003    1.4977    0.0000 N   0  0
   -3.8990    0.7455    0.0000 C   0  0
   -5.2003    1.4932    0.0000 C   0  0
   -3.8969   -0.4545    0.0000 O   0  0
   -5.2004    2.9933    0.0000 C   0  0
   -6.4995    3.7432    0.0000 C   0  0
   -7.7985    2.9932    0.0000 C   0  0
   -7.7985    1.4932    0.0000 C   0  0
   -6.4994    0.7432    0.0000 C   0  0
   -6.4994   -0.4568    0.0000 Cl  0  0
   -8.8377    0.8931    0.0000 C   0  0
   -8.8378    3.5931    0.0000 F   0  0
    0.0000    3.0008    0.0000 N   0  0
    1.2978    3.7529    0.0000 C   0  0
    1.2954    5.2529    0.0000 C   0  0
   -0.0048    6.0009    0.0000 N   0  0
   -1.3026    5.2488    0.0000 C   0  0
   -1.3002    3.7488    0.0000 C   0  0
    0.0031   -3.0008    0.0000 N   0  3
    1.0432   -3.5993    0.0000 O   0  0
   -1.0351   -3.6026    0.0000 O   0  5
   -6.4965    5.2441    0.0000 N   0  3
   -5.4564    5.8426    0.0000 O   0  0
   -7.5347    5.8458    0.0000 O   0  5
   -0.0067    7.2009    0.0000 C   0  0
  1  2  2  0
  2  3  1  0
  3  4  2  0
  4  5  1  0
  5  6  2  0
  6  1  1  0
  4  7  1  0
  7  8  1  0
  8  9  1  0
  8 10  2  0
  9 11  2  0
 11 12  1  0
 12 13  2  0
 13 14  1  0
 14 15  2  0
 15  9  1  0
 15 16  1  0
 14 17  1  0
 13 18  1  0
  3 19  1  0
 19 20  1  0
 19 24  1  0
 20 21  1  0
 21 22  1  0
 22 23  1  0
 23 24  1  0
 25 26  2  0
 25 27  1  0
  6 25  1  0
 28 29  2  0
 28 30  1  0
 12 28  1  0
 22 31  1  0
M  CHG  4  25   1  27  -1  28   1  30  -1
M  END