
  CDK    9/16/09,9:42

 21 23  0  0  0  0  0  0  0  0999 V2000
   -1.7146  -12.1066    0.0000 C   0  0  0  0  0  0  0  0  0  0  0  0
   -2.1335  -11.3967    0.0000 N   0  0  0  0  0  0  0  0  0  0  0  0
   -2.9611  -11.4077    0.0000 C   0  0  0  0  0  0  0  0  0  0  0  0
   -3.3618  -12.1246    0.0000 N   0  0  0  0  0  0  0  0  0  0  0  0
   -2.1190  -12.8229    0.0000 C   0  0  0  0  0  0  0  0  0  0  0  0
   -2.9439  -12.8317    0.0000 C   0  0  0  0  0  0  0  0  0  0  0  0
   -3.1905  -13.6190    0.0000 N   0  0  0  0  0  0  0  0  0  0  0  0
   -2.5180  -14.0968    0.0000 C   0  0  0  0  0  0  0  0  0  0  0  0
   -1.8558  -13.6048    0.0000 C   0  0  0  0  0  0  0  0  0  0  0  0
   -3.9778  -13.8825    0.0000 C   0  0  0  0  0  0  0  0  0  0  0  0
   -4.6513  -13.4040    0.0000 O   0  0  0  0  0  0  0  0  0  0  0  0
   -5.3147  -13.8967    0.0000 C   0  0  0  0  0  0  0  0  0  0  0  0
   -5.0509  -14.6799    0.0000 C   0  0  0  0  0  0  0  0  0  0  0  0
   -4.2248  -14.6710    0.0000 C   0  0  0  0  0  0  0  0  0  0  0  0
   -5.5295  -15.3535    0.0000 O   0  0  0  0  0  0  0  0  0  0  0  0
   -3.7320  -15.3343    0.0000 O   0  0  0  0  0  0  0  0  0  0  0  0
   -6.1032  -13.6497    0.0000 C   0  0  0  0  0  0  0  0  0  0  0  0
   -6.2835  -12.8434    0.0000 O   0  0  0  0  0  0  0  0  0  0  0  0
   -0.8883  -12.0987    0.0000 N   0  0  0  0  0  0  0  0  0  0  0  0
   -1.1477  -14.0147    0.0000 C   0  0  0  0  0  0  0  0  0  0  0  0
   -0.4361  -14.4279    0.0000 N   0  0  0  0  0  0  0  0  0  0  0  0
  4  6  1  0  0  0  0 
  5  6  2  0  0  0  0 
  1  2  2  0  0  0  0 
  5  1  1  0  0  0  0 
  2  3  1  0  0  0  0 
 11 12  1  0  0  0  0 
 12 13  1  0  0  0  0 
 13 14  1  0  0  0  0 
 14 10  1  0  0  0  0 
 10  7  1  1  0  0  0 
 13 15  1  6  0  0  0 
  3  4  2  0  0  0  0 
 14 16  1  6  0  0  0 
  6  7  1  0  0  0  0 
 12 17  1  1  0  0  0 
  7  8  1  0  0  0  0 
 17 18  1  0  0  0  0 
  8  9  2  0  0  0  0 
  1 19  1  0  0  0  0 
  9  5  1  0  0  0  0 
  9 20  1  0  0  0  0 
 10 11  1  0  0  0  0 
 20 21  3  0  0  0  0 
M  END