
  SciTegic06181315362D

 34 36  0  0  0  0            999 V2000
    4.5402   -9.8498    0.0000 C   0  0
    4.5390  -10.6772    0.0000 C   0  0
    5.2539  -11.0901    0.0000 C   0  0
    5.9702  -10.6767    0.0000 C   0  0
    5.9674   -9.8462    0.0000 C   0  0
    5.2521   -9.4371    0.0000 C   0  0
    3.8257   -9.4375    0.0000 O   0  0
    3.1112   -9.8502    0.0000 C   0  0
    3.1114  -10.6752    0.0000 C   0  0
    2.3971  -11.0878    0.0000 O   0  0
    6.6854  -11.0881    0.0000 O   0  0
    7.3992  -10.6745    0.0000 C   0  0
    8.1143  -11.0859    0.0000 C   0  0
    8.8282  -10.6723    0.0000 C   0  0
    8.1156  -11.9108    0.0000 O   0  0
    9.5432  -11.0836    0.0000 N   0  0
   10.2571  -10.6700    0.0000 C   0  0
   10.9721  -11.0814    0.0000 C   0  0
   11.6860  -10.6678    0.0000 N   0  0
   12.4010  -11.0791    0.0000 C   0  0
   13.1149  -10.6655    0.0000 N   0  0
   12.4024  -11.9041    0.0000 O   0  0
   13.8300  -11.0769    0.0000 C   0  0
   13.8275  -11.9009    0.0000 C   0  0
   14.5418  -12.3122    0.0000 C   0  0
   15.2566  -11.8986    0.0000 C   0  0
   15.2526  -11.0694    0.0000 C   0  0
   14.5378  -10.6618    0.0000 C   0  0
   15.9723  -12.3090    0.0000 O   0  0
    1.6824  -10.6759    0.0000 C   0  0
    1.6933   -9.8502    0.0000 C   0  0
    0.9191   -9.5850    0.0000 C   0  0
    0.4245  -10.2456    0.0000 C   0  0
    0.8956  -10.9191    0.0000 C   0  0
  1  2  2  0
  2  3  1  0
  3  4  2  0
  4  5  1  0
  5  6  2  0
  6  1  1  0
  1  7  1  0
  7  8  1  0
  8  9  1  0
  9 10  1  0
  4 11  1  0
 11 12  1  0
 12 13  1  0
 13 14  1  0
 13 15  1  0
 14 16  1  0
 16 17  1  0
 17 18  1  0
 18 19  1  0
 19 20  1  0
 20 21  1  0
 20 22  2  0
 21 23  1  0
 23 24  2  0
 24 25  1  0
 25 26  2  0
 26 27  1  0
 27 28  2  0
 28 23  1  0
 26 29  1  0
 10 30  1  0
 30 31  1  0
 31 32  1  0
 32 33  1  0
 33 34  1  0
 34 30  1  0
M  END