
          11280715492D 1   1.00000     0.00000     0

 38 38  0     0  0            999 V2000
   -4.4771  -11.9126    0.0000 C   0  0  0  0  0  0           0  0  0
   -3.7622  -12.3245    0.0000 C   0  0  0  0  0  0           0  0  0
   -3.0515  -11.9126    0.0000 C   0  0  0  0  0  0           0  0  0
   -2.3366  -12.3245    0.0000 C   0  0  0  0  0  0           0  0  0
   -1.6217  -11.9126    0.0000 C   0  0  0  0  0  0           0  0  0
   -0.9069  -12.3245    0.0000 C   0  0  0  0  0  0           0  0  0
   -0.1962  -11.9126    0.0000 N   0  3  3  0  0  0           0  0  0
    0.5187  -11.5007    0.0000 C   0  0  0  0  0  0           0  0  0
    0.2157  -12.6274    0.0000 C   0  0  0  0  0  0           0  0  0
   -0.6082  -11.2019    0.0000 C   0  0  0  0  0  0           0  0  0
    1.2294  -11.9126    0.0000 C   0  0  0  0  0  0           0  0  0
    1.9443  -11.5007    0.0000 C   0  0  0  0  0  0           0  0  0
    2.6591  -11.9126    0.0000 N   0  0  3  0  0  0           0  0  0
    2.7472  -12.7315    0.0000 C   0  0  0  0  0  0           0  0  0
    3.4127  -11.5755    0.0000 C   0  0  0  0  0  0           0  0  0
    3.9635  -12.1861    0.0000 C   0  0  0  0  0  0           0  0  0
    3.5515  -12.9009    0.0000 C   0  0  0  0  0  0           0  0  0
    3.9640  -13.6166    0.0000 C   0  0  0  0  0  0           0  0  0
    4.7902  -13.6166    0.0000 C   0  0  0  0  0  0           0  0  0
    5.2037  -12.8990    0.0000 C   0  0  0  0  0  0           0  0  0
    4.7901  -12.1853    0.0000 C   0  0  0  0  0  0           0  0  0
    3.5826  -10.7703    0.0000 O   0  0  0  0  0  0           0  0  0
    2.1372  -13.2855    0.0000 O   0  0  0  0  0  0           0  0  0
   -4.4730  -13.0859    0.0000 C   0  0  0  0  0  0           0  0  0
   -5.0596  -12.4993    0.0000 N   0  3  3  0  0  0           0  0  0
   -5.6463  -11.9126    0.0000 C   0  0  0  0  0  0           0  0  0
   -5.6463  -13.0817    0.0000 C   0  0  0  0  0  0           0  0  0
   -4.6862  -13.8817    0.0000 C   0  0  0  0  0  0           0  0  0
   -4.9057  -14.6753    0.0000 C   0  0  0  0  0  0           0  0  0
   -5.1221  -15.4701    0.0000 C   0  0  0  0  0  0           0  0  0
   -4.5418  -16.0550    0.0000 N   0  0  3  0  0  0           0  0  0
   -4.6718  -16.8711    0.0000 O   0  0  0  0  0  0           0  0  0
   -3.9392  -17.2480    0.0000 C   0  0  0  0  0  0           0  0  0
   -3.3543  -16.6677    0.0000 C   0  0  0  0  0  0           0  0  0
   -3.7255  -15.9323    0.0000 C   0  0  0  0  0  0           0  0  0
   -3.3471  -15.2004    0.0000 O   0  0  0  0  0  0           0  0  0
    0.0250  -14.2135    0.0000 Br  0  5  0  0  0  0           0  0  0
   -3.4660  -13.4979    0.0000 Br  0  5  0  0  0  0           0  0  0
 13 14  1  0     0  0
 14 17  1  0     0  0
 16 15  1  0     0  0
 15 13  1  0     0  0
 16 17  2  0     0  0
 17 18  1  0     0  0
 18 19  2  0     0  0
 19 20  1  0     0  0
 20 21  2  0     0  0
 21 16  1  0     0  0
 15 22  2  0     0  0
 14 23  2  0     0  0
 24 25  1  0     0  0
 25 26  1  0     0  0
  1  2  1  0     0  0
 25 27  1  0     0  0
 25  1  1  0     0  0
  2  3  1  0     0  0
 24 28  1  0     0  0
  3  4  1  0     0  0
 28 29  3  0     0  0
  4  5  1  0     0  0
 29 30  1  0     0  0
  5  6  1  0     0  0
 30 31  1  0     0  0
 31 32  1  0     0  0
  6  7  1  0     0  0
  7  8  1  0     0  0
  7  9  1  0     0  0
  7 10  1  0     0  0
 32 33  1  0     0  0
 33 34  1  0     0  0
 34 35  1  0     0  0
 35 31  1  0     0  0
  8 11  1  0     0  0
 35 36  2  0     0  0
 11 12  1  0     0  0
 12 13  1  0     0  0
M  CHG  4   7   1  25   1  37  -1  38  -1
M  END