
  SciTegic02011310442D

 32 35  0  0  0  0            999 V2000
   20.4289  -26.8527    0.0000 C   0  0
   21.1454  -26.4394    0.0000 C   0  0
   21.1425  -25.6088    0.0000 C   0  0
   20.4271  -25.1998    0.0000 C   0  0
   19.7141  -26.4399    0.0000 C   0  0
   19.7108  -25.6156    0.0000 C   0  0
   18.9258  -25.3640    0.0000 O   0  0
   18.4439  -26.0328    0.0000 C   0  0
   18.9312  -26.6977    0.0000 C   0  0
   17.6189  -26.0362    0.0000 C   0  0
   21.8554  -25.1937    0.0000 C   0  0
   22.5715  -25.6035    0.0000 N   0  0
   21.8523  -24.3687    0.0000 O   0  0
   23.2843  -25.1882    0.0000 C   0  0
   23.9988  -25.6016    0.0000 N   0  0
   24.7112  -25.1870    0.0000 C   0  0
   24.7085  -24.3611    0.0000 C   0  0
   23.9875  -23.9515    0.0000 N   0  0
   23.2781  -24.3684    0.0000 C   0  0
   25.4209  -23.9450    0.0000 C   0  0
   20.4287  -27.6777    0.0000 O   0  0
   21.1430  -28.0904    0.0000 C   0  0
   21.1387  -28.9136    0.0000 C   0  0
   21.8523  -29.3262    0.0000 N   0  0
   22.5678  -28.9138    0.0000 C   0  0
   22.5653  -28.0846    0.0000 C   0  0
   21.8513  -27.6757    0.0000 N   0  0
   23.2827  -29.3255    0.0000 C   0  0
   23.2836  -30.1505    0.0000 O   0  0
   23.9968  -28.9123    0.0000 N   0  0
   24.7116  -29.3240    0.0000 C   0  0
   23.9959  -28.0873    0.0000 C   0  0
  5  1  1  0
  1  2  2  0
  2  3  1  0
  3  4  2  0
  4  6  1  0
  5  6  2  0
  6  7  1  0
  7  8  1  0
  8  9  2  0
  9  5  1  0
  8 10  1  0
  3 11  1  0
 11 12  1  0
 11 13  2  0
 12 14  1  0
 14 15  2  0
 15 16  1  0
 16 17  2  0
 17 18  1  0
 18 19  2  0
 19 14  1  0
 17 20  1  0
  1 21  1  0
 21 22  1  0
 22 23  2  0
 23 24  1  0
 24 25  2  0
 25 26  1  0
 26 27  2  0
 27 22  1  0
 25 28  1  0
 28 29  2  0
 28 30  1  0
 30 31  1  0
 30 32  1  0
M  END