
  CDK    9/16/09,9:45

 50 55  0  0  0  0  0  0  0  0999 V2000
   -5.0981  -11.8154    0.0000 C   0  0  0  0  0  0  0  0  0  0  0  0
   -5.0993  -12.6430    0.0000 C   0  0  0  0  0  0  0  0  0  0  0  0
   -4.3864  -13.0559    0.0000 C   0  0  0  0  0  0  0  0  0  0  0  0
   -4.3884  -11.4027    0.0000 C   0  0  0  0  0  0  0  0  0  0  0  0
   -5.8129  -11.4036    0.0000 Cl  0  0  0  0  0  0  0  0  0  0  0  0
   -3.6703  -11.8114    0.0000 C   0  0  0  0  0  0  0  0  0  0  0  0
   -3.6697  -12.6430    0.0000 C   0  0  0  0  0  0  0  0  0  0  0  0
   -2.8786  -12.8995    0.0000 N   0  0  0  0  0  0  0  0  0  0  0  0
   -2.3902  -12.2263    0.0000 C   0  0  0  0  0  0  0  0  0  0  0  0
   -2.8795  -11.5540    0.0000 C   0  0  0  0  0  0  0  0  0  0  0  0
   -2.6233  -13.6839    0.0000 C   0  0  0  0  0  0  0  0  0  0  0  0
   -3.1749  -14.2974    0.0000 C   0  0  0  0  0  0  0  0  0  0  0  0
   -1.8162  -13.8550    0.0000 C   0  0  0  0  0  0  0  0  0  0  0  0
   -1.5621  -14.6410    0.0000 C   0  0  0  0  0  0  0  0  0  0  0  0
   -0.7558  -14.8121    0.0000 C   0  0  0  0  0  0  0  0  0  0  0  0
   -0.2033  -14.1984    0.0000 C   0  0  0  0  0  0  0  0  0  0  0  0
   -0.4624  -13.4107    0.0000 C   0  0  0  0  0  0  0  0  0  0  0  0
   -1.2682  -13.2433    0.0000 C   0  0  0  0  0  0  0  0  0  0  0  0
   -3.9801  -14.1227    0.0000 C   0  0  0  0  0  0  0  0  0  0  0  0
   -4.5314  -14.7354    0.0000 C   0  0  0  0  0  0  0  0  0  0  0  0
   -4.2762  -15.5207    0.0000 C   0  0  0  0  0  0  0  0  0  0  0  0
   -3.4645  -15.6900    0.0000 C   0  0  0  0  0  0  0  0  0  0  0  0
   -2.9166  -15.0761    0.0000 C   0  0  0  0  0  0  0  0  0  0  0  0
   -1.5653  -12.2258    0.0000 C   0  0  0  0  0  0  0  0  0  0  0  0
   -1.1533  -11.5110    0.0000 C   0  0  0  0  0  0  0  0  0  0  0  0
   -0.3283  -11.5105    0.0000 N   0  0  0  0  0  0  0  0  0  0  0  0
    0.0837  -10.7958    0.0000 S   0  0  0  0  0  0  0  0  0  0  0  0
    0.4904  -10.0784    0.0000 C   0  0  0  0  0  0  0  0  0  0  0  0
    0.7999  -11.2052    0.0000 O   0  0  0  0  0  0  0  0  0  0  0  0
   -0.6324  -10.3860    0.0000 O   0  0  0  0  0  0  0  0  0  0  0  0
    1.3153  -10.0719    0.0000 C   0  0  0  0  0  0  0  0  0  0  0  0
    1.7324  -10.7869    0.0000 C   0  0  0  0  0  0  0  0  0  0  0  0
    2.5567  -10.7809    0.0000 C   0  0  0  0  0  0  0  0  0  0  0  0
    2.9643  -10.0627    0.0000 C   0  0  0  0  0  0  0  0  0  0  0  0
    2.5418   -9.3492    0.0000 C   0  0  0  0  0  0  0  0  0  0  0  0
    1.7190   -9.3587    0.0000 C   0  0  0  0  0  0  0  0  0  0  0  0
   -2.6252  -10.7692    0.0000 C   0  0  0  0  0  0  0  0  0  0  0  0
   -1.8182  -10.5972    0.0000 C   0  0  0  0  0  0  0  0  0  0  0  0
   -1.5639   -9.8125    0.0000 O   0  0  0  0  0  0  0  0  0  0  0  0
   -2.1163   -9.1997    0.0000 C   0  0  0  0  0  0  0  0  0  0  0  0
   -1.8570   -8.4122    0.0000 C   0  0  0  0  0  0  0  0  0  0  0  0
   -2.4087   -7.8013    0.0000 C   0  0  0  0  0  0  0  0  0  0  0  0
   -3.2164   -7.9717    0.0000 C   0  0  0  0  0  0  0  0  0  0  0  0
   -3.4696   -8.7613    0.0000 C   0  0  0  0  0  0  0  0  0  0  0  0
   -2.9163   -9.3703    0.0000 C   0  0  0  0  0  0  0  0  0  0  0  0
   -3.7702   -7.3604    0.0000 C   0  0  0  0  0  0  0  0  0  0  0  0
   -3.5162   -6.5756    0.0000 O   0  0  0  0  0  0  0  0  0  0  0  0
   -4.5770   -7.5329    0.0000 O   0  0  0  0  0  0  0  0  0  0  0  0
    2.9461   -8.6300    0.0000 Cl  0  0  0  0  0  0  0  0  0  0  0  0
    3.7893  -10.0551    0.0000 Cl  0  0  0  0  0  0  0  0  0  0  0  0
  8 11  1  0  0  0  0 
  9 24  1  0  0  0  0 
  1  5  1  0  0  0  0 
 24 25  1  0  0  0  0 
 11 12  1  0  0  0  0 
 25 26  1  0  0  0  0 
  6  7  1  0  0  0  0 
 26 27  1  0  0  0  0 
 11 13  1  0  0  0  0 
 27 28  1  0  0  0  0 
  2  3  1  0  0  0  0 
 27 29  2  0  0  0  0 
 13 14  2  0  0  0  0 
 27 30  2  0  0  0  0 
  3  7  2  0  0  0  0 
 28 31  1  0  0  0  0 
 14 15  1  0  0  0  0 
 31 32  2  0  0  0  0 
  1  2  2  0  0  0  0 
 32 33  1  0  0  0  0 
 15 16  2  0  0  0  0 
 33 34  2  0  0  0  0 
  6  4  2  0  0  0  0 
 34 35  1  0  0  0  0 
 16 17  1  0  0  0  0 
 35 36  2  0  0  0  0 
 36 31  1  0  0  0  0 
  4  1  1  0  0  0  0 
 10 37  1  0  0  0  0 
 17 18  2  0  0  0  0 
 37 38  1  0  0  0  0 
 18 13  1  0  0  0  0 
 38 39  1  0  0  0  0 
  7  8  1  0  0  0  0 
 39 40  1  0  0  0  0 
 12 19  2  0  0  0  0 
 40 41  2  0  0  0  0 
  8  9  1  0  0  0  0 
 41 42  1  0  0  0  0 
 19 20  1  0  0  0  0 
 42 43  2  0  0  0  0 
  9 10  2  0  0  0  0 
 43 44  1  0  0  0  0 
 20 21  2  0  0  0  0 
 44 45  2  0  0  0  0 
 45 40  1  0  0  0  0 
 10  6  1  0  0  0  0 
 21 22  1  0  0  0  0 
 46 47  1  0  0  0  0 
 46 48  2  0  0  0  0 
 43 46  1  0  0  0  0 
 22 23  2  0  0  0  0 
 35 49  1  0  0  0  0 
 23 12  1  0  0  0  0 
 34 50  1  0  0  0  0 
M  END