
          11280714502D 1   1.00000     0.00000     0

 29 33  0     1  0            999 V2000
    4.5292   -0.6417    0.0000 C   0  0  1  0  0  0           0  0  0
    4.5292    0.5500    0.0000 N   0  0  3  0  0  0           0  0  0
    4.5167   -1.2375    0.0000 C   0  0  1  0  0  0           0  0  0
    4.0125    0.2583    0.0000 C   0  0  1  0  0  0           0  0  0
    3.5000    0.5500    0.0000 C   0  0  0  0  0  0           0  0  0
    4.0042   -0.3417    0.0000 C   0  0  0  0  0  0           0  0  0
    3.5000    1.1500    0.0000 C   0  0  0  0  0  0           0  0  0
    5.0500   -0.3500    0.0000 C   0  0  3  0  0  0           0  0  0
    2.9792    0.2583    0.0000 C   0  0  0  0  0  0           0  0  0
    4.0000   -1.5292    0.0000 C   0  0  0  0  0  0           0  0  0
    5.0542    0.2583    0.0000 C   0  0  0  0  0  0           0  0  0
    2.4667    0.5500    0.0000 C   0  0  0  0  0  0           0  0  0
    2.4625    1.1583    0.0000 C   0  0  0  0  0  0           0  0  0
    2.9792    1.4500    0.0000 C   0  0  0  0  0  0           0  0  0
    1.9417    0.2583    0.0000 O   0  0  0  0  0  0           0  0  0
    4.5292    1.1500    0.0000 C   0  0  0  0  0  0           0  0  0
    1.9417    1.4500    0.0000 O   0  0  0  0  0  0           0  0  0
    5.0292   -1.5417    0.0000 C   0  0  2  0  0  0           0  0  0
    1.2167    0.8375    0.0000 C   0  0  0  0  0  0           0  0  0
    4.0125    1.4500    0.0000 C   0  0  0  0  0  0           0  0  0
    3.9917   -2.1292    0.0000 O   0  0  0  0  0  0           0  0  0
    5.5625   -0.6500    0.0000 C   0  0  0  0  0  0           0  0  0
    5.5542   -1.2500    0.0000 C   0  0  0  0  0  0           0  0  0
    3.4792   -1.2250    0.0000 O   0  0  0  0  0  0           0  0  0
    4.7292   -2.0542    0.0000 O   0  0  0  0  0  0           0  0  0
    2.9625   -1.5167    0.0000 C   0  0  0  0  0  0           0  0  0
    4.0042   -0.9375    0.0000 H   0  0  0  0  0  0           0  0  0
    3.4917   -0.0292    0.0000 H   0  0  0  0  0  0           0  0  0
    5.3292   -2.0542    0.0000 H   0  0  0  0  0  0           0  0  0
  2 11  1  0     0  0
  3  1  1  0     0  0
  4  6  1  0     0  0
  5  4  1  0     0  0
  6  1  1  0     0  0
  7  5  2  0     0  0
  8  1  1  0     0  0
  9  5  1  0     0  0
  3 10  1  6     0  0
 11  8  1  0     0  0
 12  9  2  0     0  0
 13 12  1  0     0  0
 14  7  1  0     0  0
 15 12  1  0     0  0
 16  2  1  0     0  0
 17 13  1  0     0  0
 18  3  1  0     0  0
 19 15  1  0     0  0
 20 16  1  0     0  0
 21 10  2  0     0  0
 22  8  1  0     0  0
 23 22  1  0     0  0
 24 10  1  0     0  0
 18 25  1  6     0  0
 26 24  1  0     0  0
  1 27  1  6     0  0
  4 28  1  1     0  0
 18 29  1  1     0  0
  4  2  1  0     0  0
 23 18  1  0     0  0
 20  7  1  0     0  0
 13 14  2  0     0  0
 17 19  1  0     0  0
M  END