
  SciTegic10301317112D

 73 77  0  0  1  0            999 V2000
   14.5916   -7.3417    0.0000 N   0  0
   13.8872   -6.9293    0.0000 C   0  0
    9.6094   -8.5958    0.0000 C   0  0
    5.2972   -6.9809    0.0000 C   0  0
    9.5922   -6.9465    0.0000 C   0  0
    7.4561   -7.3760    0.0000 C   0  0
   11.7397   -7.3417    0.0000 C   0  0
   15.3647   -7.6451    0.0000 C   0  0  2  0  0  0
   10.9151   -8.8707    0.0000 N   0  0
    6.0188   -7.3932    0.0000 N   0  0
    8.1663   -6.9637    0.0000 N   0  0
    4.5928   -7.4104    0.0000 C   0  0  1  0  0  0
   10.3138   -7.3588    0.0000 N   0  0
   12.4555   -6.9236    0.0000 N   0  0
   10.3653   -8.2636    0.0000 C   0  0
    8.8879   -7.3702    0.0000 C   0  0  2  0  0  0
    6.7232   -6.9751    0.0000 C   0  0  1  0  0  0
   11.0296   -6.9407    0.0000 C   0  0  1  0  0  0
   15.5823   -8.4412    0.0000 C   0  0
   13.1771   -7.3417    0.0000 C   0  0  1  0  0  0
   14.5573  -10.6574    0.0000 C   0  0
    3.8713   -6.9981    0.0000 N   0  0
    9.6953   -9.4204    0.0000 C   0  0
    8.8879   -8.1949    0.0000 C   0  0
    3.1497   -7.4104    0.0000 C   0  0
    2.4396   -7.0095    0.0000 C   0  0
   10.5142   -9.5865    0.0000 C   0  0
   13.8471  -11.0639    0.0000 N   0  0
    1.7238   -7.4276    0.0000 C   0  0
   13.8987   -6.1047    0.0000 O   0  0
    5.2972   -6.1562    0.0000 O   0  0
    9.5922   -6.1219    0.0000 O   0  0
   11.7569   -8.1663    0.0000 O   0  0
    7.4619   -8.2007    0.0000 O   0  0
    6.7232   -6.1390    0.0000 C   0  0
   14.9868   -9.0253    0.0000 O   0  0
   11.0182   -6.1047    0.0000 C   0  0
    3.1669   -8.2464    0.0000 O   0  0
   14.5745   -9.8328    0.0000 N   0  0
   16.3784   -8.6587    0.0000 N   0  0
   15.2731  -11.0811    0.0000 N   0  0
   14.6432   -6.5170    0.0000 C   0  0
    1.7238   -8.2522    0.0000 C   0  0
    7.4390   -5.7267    0.0000 C   0  0
    8.8649   -4.8849    0.0000 C   0  0
    1.7352   -9.8957    0.0000 C   0  0
    4.5928   -8.2292    0.0000 C   0  0
    1.0194   -8.6645    0.0000 C   0  0
    2.4453   -8.6473    0.0000 C   0  0
    8.1605   -6.1333    0.0000 C   0  0
    7.4276   -4.9021    0.0000 C   0  0
    8.8707   -5.7095    0.0000 C   0  0
    8.1491   -4.4840    0.0000 C   0  0
    2.4453   -9.4720    0.0000 C   0  0
    1.0194   -9.4892    0.0000 C   0  0
   15.8915   -7.0095    0.0000 C   0  0
    9.5751   -4.4726    0.0000 O   0  0
    1.7410  -10.7089    0.0000 O   0  0
    5.3144   -8.6302    0.0000 O   0  0
   15.4449   -6.3108    0.0000 C   0  0
   13.1657   -8.1663    0.0000 C   0  0
    9.1570  -10.0389    0.0000 C   0  0
   11.7226   -5.6924    0.0000 C   0  0
   10.7777  -10.3767    0.0000 C   0  0
   16.5845   -9.4548    0.0000 C   0  0
   13.8529   -9.4147    0.0000 C   0  0
    2.4567  -11.1213    0.0000 C   0  0
   13.8701   -8.5958    0.0000 C   0  0
   12.4441   -6.0989    0.0000 C   0  0
   11.7226   -4.8677    0.0000 C   0  0
   17.3748   -9.6724    0.0000 C   0  0
    9.4147  -10.8292    0.0000 C   0  0
   10.2279  -10.9838    0.0000 C   0  0
  2  1  1  0
  3 24  1  0
  4 10  1  0
  5 13  1  0
  6 11  1  0
  7 14  1  0
  8  1  1  0
  9 15  1  0
 10 17  1  0
 11 16  1  0
 12  4  1  0
 13 18  1  0
 14 20  1  0
 15  3  2  0
 16  5  1  0
 17  6  1  0
 18  7  1  0
  8 19  1  1
 20  2  1  0
 21 39  2  0
 22 12  1  0
 23  3  1  0
 16 24  1  1
 25 22  1  0
 26 25  1  0
 27 23  2  0
 28 21  1  0
 29 26  2  0
 30  2  2  0
 31  4  2  0
 32  5  2  0
 33  7  2  0
 34  6  2  0
 17 35  1  1
 36 19  2  0
 18 37  1  1
 38 25  2  0
 39 66  1  0
 40 19  1  0
 41 21  1  0
 42  1  1  0
 43 29  1  0
 44 35  1  0
 45 53  1  0
 46 54  1  0
 12 47  1  6
 48 43  2  0
 49 43  1  0
 50 44  2  0
 51 44  1  0
 52 50  1  0
 53 51  2  0
 54 49  2  0
 55 48  1  0
 56  8  1  0
 57 45  1  0
 58 46  1  0
 59 47  1  0
 60 42  1  0
 20 61  1  6
 62 23  1  0
 63 37  1  0
 64 27  1  0
 65 40  1  0
 66 68  1  0
 67 58  1  0
 68 61  1  0
 69 63  1  0
 70 63  1  0
 71 65  1  0
 72 62  2  0
 73 72  1  0
 60 56  1  0
 27  9  1  0
 64 73  2  0
 45 52  2  0
 55 46  2  0
M  END