
          11280714552D 1   1.00000     0.00000     0

 31 34  0     1  0            999 V2000
    0.2792   -1.7500    0.0000 O   0  0  0  0  0  0           0  0  0
    0.2792   -3.4042    0.0000 O   0  0  0  0  0  0           0  0  0
    1.0000   -2.1625    0.0000 C   0  0  2  0  0  0           0  0  0
    1.0000   -2.9917    0.0000 C   0  0  2  0  0  0           0  0  0
   -0.4333   -2.1625    0.0000 C   0  0  0  0  0  0           0  0  0
    5.2875   -3.0042    0.0000 C   0  0  0  0  0  0           0  0  0
   -0.4333   -2.9875    0.0000 C   0  0  0  0  0  0           0  0  0
    5.9917   -3.4250    0.0000 C   0  0  0  0  0  0           0  0  0
    5.2792   -2.1875    0.0000 C   0  0  0  0  0  0           0  0  0
    1.7167   -1.7542    0.0000 C   0  0  0  0  0  0           0  0  0
    4.5667   -3.4125    0.0000 O   0  0  0  0  0  0           0  0  0
    1.7125   -3.4042    0.0000 C   0  0  0  0  0  0           0  0  0
    2.4292   -3.0000    0.0000 N   0  0  0  0  0  0           0  0  0
    5.9917   -4.2500    0.0000 O   0  0  0  0  0  0           0  0  0
    4.5667   -1.7750    0.0000 O   0  0  0  0  0  0           0  0  0
    6.7167   -2.1875    0.0000 C   0  0  0  0  0  0           0  0  0
   -1.1458   -1.7500    0.0000 C   0  0  0  0  0  0           0  0  0
   -1.1458   -3.4042    0.0000 C   0  0  0  0  0  0           0  0  0
    6.7125   -3.0125    0.0000 C   0  0  0  0  0  0           0  0  0
    5.9917   -1.7750    0.0000 C   0  0  0  0  0  0           0  0  0
    2.4292   -2.1750    0.0000 C   0  0  0  0  0  0           0  0  0
    1.7167   -0.9375    0.0000 C   0  0  0  0  0  0           0  0  0
    3.1417   -3.4125    0.0000 C   0  0  0  0  0  0           0  0  0
    3.8542   -3.0000    0.0000 C   0  0  0  0  0  0           0  0  0
    5.2750   -4.6542    0.0000 C   0  0  0  0  0  0           0  0  0
    4.5667   -0.9500    0.0000 C   0  0  0  0  0  0           0  0  0
   -1.8583   -2.1667    0.0000 C   0  0  0  0  0  0           0  0  0
   -1.8583   -2.9917    0.0000 C   0  0  0  0  0  0           0  0  0
    2.4292   -0.5250    0.0000 C   0  0  0  0  0  0           0  0  0
    3.1417   -1.7625    0.0000 C   0  0  0  0  0  0           0  0  0
    3.1417   -0.9375    0.0000 C   0  0  0  0  0  0           0  0  0
  2  7  1  0     0  0
  3  1  1  0     0  0
  4  3  1  0     0  0
  5  1  1  0     0  0
  6 11  1  0     0  0
  7  5  1  0     0  0
  8  6  2  0     0  0
  9  6  1  0     0  0
  3 10  1  1     0  0
 11 24  1  0     0  0
  4 12  1  6     0  0
 13 12  1  0     0  0
 14  8  1  0     0  0
 15  9  1  0     0  0
 16 20  1  0     0  0
 17  5  2  0     0  0
 18  7  2  0     0  0
 19  8  1  0     0  0
 20  9  2  0     0  0
 21 10  2  0     0  0
 22 10  1  0     0  0
 23 13  1  0     0  0
 24 23  1  0     0  0
 25 14  1  0     0  0
 26 15  1  0     0  0
 27 17  1  0     0  0
 28 27  2  0     0  0
 29 22  2  0     0  0
 30 21  1  0     0  0
 31 29  1  0     0  0
  2  4  1  0     0  0
 28 18  1  0     0  0
 31 30  2  0     0  0
 16 19  2  0     0  0
M  END