
          11280714562D 1   1.00000     0.00000     0

 34 37  0     0  0            999 V2000
    0.8042   -0.7750    0.0000 N   0  0  3  0  0  0           0  0  0
    1.3875   -0.6750    0.0000 C   0  0  0  0  0  0           0  0  0
    0.6167   -1.3417    0.0000 C   0  0  0  0  0  0           0  0  0
    1.4042    0.4458    0.0000 C   0  0  0  0  0  0           0  0  0
    0.4417   -0.4167    0.0000 C   0  0  0  0  0  0           0  0  0
    1.6750   -0.1250    0.0000 C   0  0  0  0  0  0           0  0  0
    0.8167    0.5583    0.0000 N   0  0  0  0  0  0           0  0  0
    0.4417    0.1958    0.0000 C   0  0  0  0  0  0           0  0  0
    0.8417   -2.3625    0.0000 N   0  0  3  0  0  0           0  0  0
    1.0250   -1.7875    0.0000 C   0  0  0  0  0  0           0  0  0
   -0.0833   -0.7125    0.0000 N   0  0  0  0  0  0           0  0  0
    0.0375   -1.4750    0.0000 O   0  0  0  0  0  0           0  0  0
    1.7750    0.9208    0.0000 O   0  0  0  0  0  0           0  0  0
    0.2542   -2.4917    0.0000 C   0  0  0  0  0  0           0  0  0
    1.2500   -2.8042    0.0000 C   0  0  0  0  0  0           0  0  0
   -1.2458   -5.4667    0.0000 N   0  0  3  0  0  0           0  0  0
    2.2875   -0.0917    0.0000 C   0  0  0  0  0  0           0  0  0
    1.7167   -1.1917    0.0000 C   0  0  0  0  0  0           0  0  0
    0.0792   -3.0542    0.0000 C   0  0  0  0  0  0           0  0  0
    1.0667   -3.3792    0.0000 C   0  0  0  0  0  0           0  0  0
    0.4792   -3.5042    0.0000 C   0  0  3  0  0  0           0  0  0
   -0.0833    0.4958    0.0000 C   0  0  0  0  0  0           0  0  0
   -0.5958   -0.4125    0.0000 C   0  0  0  0  0  0           0  0  0
   -1.8333   -5.6000    0.0000 C   0  0  0  0  0  0           0  0  0
   -0.8458   -5.9167    0.0000 C   0  0  0  0  0  0           0  0  0
   -1.0583   -4.9000    0.0000 C   0  0  0  0  0  0           0  0  0
    0.2917   -4.0667    0.0000 C   0  0  0  0  0  0           0  0  0
   -0.4750   -4.7750    0.0000 C   0  0  0  0  0  0           0  0  0
   -0.5958    0.1875    0.0000 C   0  0  0  0  0  0           0  0  0
    2.6167   -0.6125    0.0000 C   0  0  0  0  0  0           0  0  0
   -0.2958   -4.2042    0.0000 C   0  0  0  0  0  0           0  0  0
    2.3417   -1.1667    0.0000 C   0  0  0  0  0  0           0  0  0
   -2.2333   -5.1542    0.0000 C   0  0  0  0  0  0           0  0  0
   -0.2583   -5.7917    0.0000 C   0  0  0  0  0  0           0  0  0
  2  1  1  0     0  0
  3  1  1  0     0  0
  4  6  1  0     0  0
  5  1  1  0     0  0
  6  2  2  0     0  0
  7  8  1  0     0  0
  8  5  1  0     0  0
  9 10  1  0     0  0
 10  3  1  0     0  0
 11  5  2  0     0  0
 12  3  2  0     0  0
 13  4  2  0     0  0
 14  9  1  0     0  0
 15  9  1  0     0  0
 16 26  1  0     0  0
 17  6  1  0     0  0
 18  2  1  0     0  0
 19 14  1  0     0  0
 20 15  1  0     0  0
 21 20  1  0     0  0
 22  8  2  0     0  0
 23 11  1  0     0  0
 24 16  1  0     0  0
 25 16  1  0     0  0
 26 28  1  0     0  0
 27 21  1  0     0  0
 28 31  1  0     0  0
 29 23  2  0     0  0
 30 32  1  0     0  0
 31 27  1  0     0  0
 32 18  2  0     0  0
 33 24  1  0     0  0
 34 25  1  0     0  0
  4  7  1  0     0  0
 22 29  1  0     0  0
 30 17  2  0     0  0
 19 21  1  0     0  0
M  END