
          08180812482D 1   1.00000     0.00000     0

 42 45  0     0  0            999 V2000
    6.8777   -1.4041    0.0000 C   0  0  0  0  0  0           0  0  0
    6.8766   -2.2315    0.0000 C   0  0  0  0  0  0           0  0  0
    7.5914   -2.6444    0.0000 C   0  0  0  0  0  0           0  0  0
    7.5896   -0.9914    0.0000 C   0  0  0  0  0  0           0  0  0
    8.3098   -2.2286    0.0000 C   0  0  0  0  0  0           0  0  0
    8.3050   -1.4005    0.0000 C   0  0  0  0  0  0           0  0  0
    8.9521   -0.8746    0.0000 N   0  0  3  0  0  0           0  0  0
    8.9660   -2.7431    0.0000 N   0  0  3  0  0  0           0  0  0
    9.7642   -1.0489    0.0000 C   0  0  0  0  0  0           0  0  0
    9.7767   -2.5500    0.0000 C   0  0  0  0  0  0           0  0  0
   10.1290   -1.7953    0.0000 N   0  0  3  0  0  0           0  0  0
   10.2980   -3.1895    0.0000 O   0  0  0  0  0  0           0  0  0
   10.2725   -0.3990    0.0000 O   0  0  0  0  0  0           0  0  0
    8.7596   -0.0724    0.0000 C   0  0  0  0  0  0           0  0  0
    9.3580    0.4955    0.0000 C   0  0  0  0  0  0           0  0  0
   10.1490    0.2611    0.0000 O   0  0  0  0  0  0           0  0  0
   10.9540   -1.7879    0.0000 C   0  0  0  0  0  0           0  0  0
   11.3601   -1.0698    0.0000 C   0  0  0  0  0  0           0  0  0
   12.1851   -1.0624    0.0000 N   0  0  0  0  0  0           0  0  0
   10.9412   -0.3590    0.0000 O   0  0  0  0  0  0           0  0  0
   12.5912   -0.3443    0.0000 C   0  0  0  0  0  0           0  0  0
   13.4146   -0.3393    0.0000 C   0  0  0  0  0  0           0  0  0
   13.8206    0.3780    0.0000 C   0  0  0  0  0  0           0  0  0
   13.4017    1.0898    0.0000 C   0  0  0  0  0  0           0  0  0
   12.5725    1.0797    0.0000 C   0  0  0  0  0  0           0  0  0
   12.1702    0.3619    0.0000 C   0  0  0  0  0  0           0  0  0
    9.1655    1.2977    0.0000 C   0  0  3  0  0  0           0  0  0
    8.9458    2.1000    0.0000 C   0  0  0  0  0  0           0  0  0
    9.9646    1.5029    0.0000 C   0  0  0  0  0  0           0  0  0
    8.3682    1.0856    0.0000 C   0  0  0  0  0  0           0  0  0
   14.6456    0.3850    0.0000 S   0  0  0  0  0  0           0  0  0
    8.7883   -3.5454    0.0000 C   0  0  3  0  0  0           0  0  0
    9.4343   -4.0525    0.0000 C   0  0  0  0  0  0           0  0  0
    9.4434   -4.8794    0.0000 C   0  0  0  0  0  0           0  0  0
    7.9841   -3.7375    0.0000 C   0  0  0  0  0  0           0  0  0
    8.8070   -5.4024    0.0000 C   0  0  0  0  0  0           0  0  0
    7.6338   -4.4860    0.0000 C   0  0  0  0  0  0           0  0  0
    8.0025   -5.2252    0.0000 C   0  0  0  0  0  0           0  0  0
   15.0641   -0.3260    0.0000 C   0  0  0  0  0  0           0  0  0
   15.8891   -0.3190    0.0000 C   0  0  0  0  0  0           0  0  0
   16.3076   -1.0300    0.0000 O   0  0  0  0  0  0           0  0  0
   16.2955    0.3989    0.0000 O   0  0  0  0  0  0           0  0  0
  8 10  1  0     0  0
 19 21  1  0     0  0
 21 22  2  0     0  0
  9 11  1  0     0  0
 22 23  1  0     0  0
 10 11  1  0     0  0
 23 24  2  0     0  0
  2  3  1  0     0  0
 24 25  1  0     0  0
 10 12  2  0     0  0
 25 26  2  0     0  0
 26 21  1  0     0  0
  5  6  1  0     0  0
 15 27  1  0     0  0
  9 13  2  0     0  0
 27 28  1  0     0  0
  3  5  2  0     0  0
 27 29  1  0     0  0
  7 14  1  0     0  0
 27 30  1  0     0  0
  6  7  1  0     0  0
 23 31  1  0     0  0
 14 15  1  0     0  0
  1  2  2  0     0  0
 32 33  1  0     0  0
 15 16  2  0     0  0
 33 34  1  0     0  0
  5  8  1  0     0  0
 32 35  1  0     0  0
 11 17  1  0     0  0
 34 36  1  0     0  0
  6  4  2  0     0  0
 35 37  1  0     0  0
 17 18  1  0     0  0
 36 38  1  0     0  0
 37 38  1  0     0  0
  8 32  1  0     0  0
  7  9  1  0     0  0
 31 39  1  0     0  0
 18 19  1  0     0  0
 39 40  1  0     0  0
  4  1  1  0     0  0
 40 41  1  0     0  0
 18 20  2  0     0  0
 40 42  2  0     0  0
M  END