
          11280715182D 1   1.00000     0.00000     0

 17 17  0     0  0            999 V2000
    5.0417   -5.6792    0.0000 N   0  0  3  0  0  0           0  0  0
    5.1875   -4.8667    0.0000 C   0  0  0  0  0  0           0  0  0
    7.1875   -5.3750    0.0000 C   0  0  0  0  0  0           0  0  0
    6.4500   -5.7667    0.0000 C   0  0  0  0  0  0           0  0  0
    5.7125   -6.1667    0.0000 C   0  0  3  0  0  0           0  0  0
    8.6292   -5.4167    0.0000 N   0  3  3  0  0  0           0  0  0
    5.9542   -4.5875    0.0000 O   0  0  0  0  0  0           0  0  0
    7.9250   -4.9792    0.0000 C   0  0  0  0  0  0           0  0  0
    4.2500   -5.9000    0.0000 C   0  0  0  0  0  0           0  0  0
    4.5542   -4.3417    0.0000 C   0  0  0  0  0  0           0  0  0
    9.0750   -4.7125    0.0000 C   0  0  0  0  0  0           0  0  0
    9.3417   -5.8625    0.0000 C   0  0  0  0  0  0           0  0  0
    8.1917   -6.1292    0.0000 C   0  0  0  0  0  0           0  0  0
    5.7500   -6.9917    0.0000 C   0  0  0  0  0  0           0  0  0
    3.9167   -6.6542    0.0000 C   0  0  0  0  0  0           0  0  0
    5.1292   -7.5292    0.0000 C   0  0  0  0  0  0           0  0  0
    4.3125   -7.3875    0.0000 C   0  0  0  0  0  0           0  0  0
  2  1  1  0     0  0
  3  4  3  0     0  0
  4  5  1  0     0  0
  5  1  1  0     0  0
  6  8  1  0     0  0
  7  2  2  0     0  0
  8  3  1  0     0  0
  9  1  1  0     0  0
 10  2  1  0     0  0
 11  6  1  0     0  0
 12  6  1  0     0  0
 13  6  1  0     0  0
 14  5  1  0     0  0
 15  9  1  0     0  0
 16 14  1  0     0  0
 17 15  1  0     0  0
 16 17  1  0     0  0
M  CHG  1   6   1
M  END