
  SciTegic10311316212D

 32 36  0  0  0  0            999 V2000
   25.8350  -18.9151    0.0000 C   0  0
   25.8339  -19.7346    0.0000 C   0  0
   26.5419  -20.1436    0.0000 C   0  0
   26.5401  -18.5062    0.0000 C   0  0
   27.2488  -18.9115    0.0000 C   0  0
   27.2490  -19.7301    0.0000 C   0  0
   28.0277  -19.9828    0.0000 S   0  0
   28.5087  -19.3204    0.0000 C   0  0
   28.0272  -18.6583    0.0000 C   0  0
   25.1304  -20.1417    0.0000 N   0  0
   24.3841  -19.8088    0.0000 C   0  0
   23.8368  -20.4157    0.0000 N   0  0
   24.2449  -21.1238    0.0000 N   0  0
   25.0443  -20.9544    0.0000 C   0  0
   25.6500  -21.4984    0.0000 C   0  0
   25.4779  -22.2984    0.0000 C   0  0
   26.0840  -22.8454    0.0000 C   0  0
   26.8624  -22.5936    0.0000 C   0  0
   27.0312  -21.7897    0.0000 C   0  0
   26.4237  -21.2462    0.0000 C   0  0
   24.2148  -19.0093    0.0000 S   0  0
   29.3238  -19.3179    0.0000 C   0  0
   29.7327  -20.0255    0.0000 O   0  0
   29.7322  -18.6101    0.0000 O   0  0
   28.2795  -17.8810    0.0000 Cl  0  0
   27.8077  -21.5350    0.0000 O   0  0
   28.4165  -22.0801    0.0000 C   0  0
   28.2461  -22.8768    0.0000 C   0  0
   28.8541  -23.4217    0.0000 C   0  0
   29.6316  -23.1671    0.0000 C   0  0
   29.7976  -22.3626    0.0000 C   0  0
   29.1882  -21.8213    0.0000 C   0  0
  1  2  2  0
  2  3  1  0
  3  6  2  0
  5  4  2  0
  4  1  1  0
  5  6  1  0
  6  7  1  0
  7  8  1  0
  8  9  2  0
  9  5  1  0
 10 11  1  0
 11 12  2  0
 12 13  1  0
 13 14  2  0
 14 10  1  0
  2 10  1  0
 15 16  2  0
 16 17  1  0
 17 18  2  0
 18 19  1  0
 19 20  2  0
 20 15  1  0
 14 15  1  0
 11 21  1  0
 22 23  1  0
 22 24  2  0
  8 22  1  0
  9 25  1  0
 19 26  1  0
 26 27  1  0
 27 28  2  0
 28 29  1  0
 29 30  2  0
 30 31  1  0
 31 32  2  0
 32 27  1  0
M  END