
          11280715232D 1   1.00000     0.00000     0

 35 40  0     0  0            999 V2000
    1.1292   -0.2375    0.0000 N   0  0  3  0  0  0           0  0  0
    0.6667   -0.8625    0.0000 C   0  0  0  0  0  0           0  0  0
    0.6667    0.3875    0.0000 C   0  0  0  0  0  0           0  0  0
   -0.0708    0.1583    0.0000 C   0  0  3  0  0  0           0  0  0
   -0.0708   -0.6292    0.0000 C   0  0  3  0  0  0           0  0  0
    0.9042   -1.6000    0.0000 C   0  0  0  0  0  0           0  0  0
    5.2542   -0.6375    0.0000 C   0  0  0  0  0  0           0  0  0
    4.8792    0.5500    0.0000 N   0  0  0  0  0  0           0  0  0
    4.6292   -0.1875    0.0000 N   0  0  0  0  0  0           0  0  0
    5.6417    0.5500    0.0000 N   0  0  0  0  0  0           0  0  0
   -0.7458    0.5333    0.0000 C   0  0  3  0  0  0           0  0  0
   -0.7458   -1.0125    0.0000 C   0  0  3  0  0  0           0  0  0
    5.8792   -0.1875    0.0000 N   0  0  0  0  0  0           0  0  0
    5.2542   -1.4125    0.0000 C   0  0  0  0  0  0           0  0  0
    4.5917   -1.7875    0.0000 C   0  0  0  0  0  0           0  0  0
   -0.3583   -0.1375    0.0000 C   0  0  0  0  0  0           0  0  0
    0.3917   -2.1792    0.0000 C   0  0  0  0  0  0           0  0  0
    1.9042   -0.2375    0.0000 C   0  0  0  0  0  0           0  0  0
    0.9042    1.1250    0.0000 O   0  0  0  0  0  0           0  0  0
    3.9167   -1.4000    0.0000 C   0  0  0  0  0  0           0  0  0
   -1.4083    0.1375    0.0000 C   0  0  0  0  0  0           0  0  0
   -1.4083   -0.6375    0.0000 C   0  0  0  0  0  0           0  0  0
    0.6292   -2.9250    0.0000 O   0  0  0  0  0  0           0  0  0
    3.9167   -0.6292    0.0000 C   0  0  0  0  0  0           0  0  0
    3.2417   -1.7875    0.0000 C   0  0  0  0  0  0           0  0  0
    2.5792   -0.6292    0.0000 C   0  0  0  0  0  0           0  0  0
   -0.3708   -2.0125    0.0000 O   0  0  0  0  0  0           0  0  0
    2.5792   -1.4000    0.0000 C   0  0  0  0  0  0           0  0  0
    3.2417   -0.2375    0.0000 C   0  0  0  0  0  0           0  0  0
    5.9167   -1.7875    0.0000 C   0  0  0  0  0  0           0  0  0
    4.5917   -2.5750    0.0000 C   0  0  0  0  0  0           0  0  0
   -0.8958   -2.6042    0.0000 C   0  0  0  0  0  0           0  0  0
    5.9042   -2.5750    0.0000 C   0  0  0  0  0  0           0  0  0
    5.2417   -2.9500    0.0000 C   0  0  0  0  0  0           0  0  0
   -1.6458   -2.4375    0.0000 C   0  0  0  0  0  0           0  0  0
  2  1  1  0     0  0
  3  1  1  0     0  0
  4  3  1  0     0  0
  5  2  1  0     0  0
  6  2  2  0     0  0
  7 14  1  0     0  0
  8  9  2  0     0  0
  9  7  1  0     0  0
 10 13  1  0     0  0
 11  4  1  0     0  0
 12  5  1  0     0  0
 13  7  2  0     0  0
 14 15  2  0     0  0
 15 20  1  0     0  0
 16 11  1  0     0  0
 17  6  1  0     0  0
 18  1  1  0     0  0
 19  3  2  0     0  0
 20 24  2  0     0  0
 21 11  1  0     0  0
 22 12  1  0     0  0
 23 17  2  0     0  0
 24 29  1  0     0  0
 25 28  2  0     0  0
 26 18  1  0     0  0
 27 17  1  0     0  0
 28 26  1  0     0  0
 29 26  2  0     0  0
 30 14  1  0     0  0
 31 15  1  0     0  0
 32 27  1  0     0  0
 33 34  1  0     0  0
 34 31  2  0     0  0
 35 32  1  0     0  0
  4  5  1  0     0  0
 25 20  1  0     0  0
 16 12  1  0     0  0
 22 21  1  0     0  0
 30 33  2  0     0  0
 10  8  1  0     0  0
M  END