
  SciTegic05171617272D

 29 32  0  0  0  0            999 V2000
   -6.2719   11.6828    0.0000 C   0  0
   -6.2655   10.4828    0.0000 C   0  0
   -7.5605    9.7258    0.0000 C   0  0
   -7.5524    8.2258    0.0000 C   0  0
   -6.2494    7.4828    0.0000 C   0  0
   -4.9544    8.2398    0.0000 C   0  0
   -4.9624    9.7397    0.0000 C   0  0
   -6.2413    5.9820    0.0000 C   0  0
   -7.2775    5.3768    0.0000 C   0  0
   -6.2355    4.7820    0.0000 C   0  0
   -4.9380    5.2378    0.0000 N   0  0
   -4.9300    3.7369    0.0000 C   0  0
   -5.9662    3.1317    0.0000 O   0  0
   -3.6267    2.9927    0.0000 C   0  0
   -3.6187    1.4919    0.0000 O   0  0
   -2.3155    0.7475    0.0000 C   0  0
   -2.3155   -0.7475    0.0000 C   0  0
   -1.0028   -1.5132    0.0000 C   0  0
   -0.9991   -2.7132    0.0000 C   0  0
    0.2917   -0.7475    0.0000 C   0  0
    1.7138   -1.2033    0.0000 C   0  0
    2.5889    0.0182    0.0000 N   0  0
    1.7138    1.2033    0.0000 N   0  0
    2.0825    2.3453    0.0000 C   0  0
    0.2917    0.7475    0.0000 C   0  0
   -1.0028    1.5132    0.0000 N   0  0
    2.1852   -2.6281    0.0000 C   0  0
    3.1871   -3.6309    0.0000 C   0  0
    1.7264   -3.9718    0.0000 C   0  0
  1  2  1  0
  2  3  2  0
  3  4  1  0
  4  5  2  0
  5  6  1  0
  6  7  2  0
  2  7  1  0
  5  8  1  0
  8  9  1  0
  8 10  1  0
  8 11  1  0
 11 12  1  0
 12 13  2  0
 12 14  1  0
 14 15  1  0
 15 16  1  0
 16 17  2  0
 17 18  1  0
 18 19  1  0
 18 20  2  0
 20 21  1  0
 21 22  2  0
 22 23  1  0
 23 24  1  0
 23 25  1  0
 20 25  1  0
 25 26  2  0
 16 26  1  0
 21 27  1  0
 27 28  1  0
 28 29  1  0
 27 29  1  0
M  END