
  SciTegic01161211252D

 48 52  0  0  0  0            999 V2000
    3.4162  -18.6300    0.0000 N   0  0
    4.8408  -18.6372    0.0000 C   0  0  2  0  0  0
    4.1304  -18.2178    0.0000 C   0  0
    2.0401  -16.9372    0.0000 C   0  0
    2.7440  -17.3710    0.0000 C   0  0
    2.7203  -18.1975    0.0000 C   0  0
    5.5751  -18.2797    0.0000 C   0  0
    6.2749  -18.7135    0.0000 N   0  0
    5.5946  -17.4531    0.0000 O   0  0
    6.2469  -19.5362    0.0000 C   0  0
    6.9426  -19.9698    0.0000 C   0  0
    7.6725  -19.5807    0.0000 N   0  0
    7.6982  -18.7533    0.0000 C   0  0
    6.9940  -18.3150    0.0000 C   0  0
    8.3677  -20.0163    0.0000 C   0  0
    8.3394  -20.8438    0.0000 C   0  0
    9.0409  -21.2802    0.0000 C   0  0
    9.7669  -20.8901    0.0000 C   0  0
    9.7911  -20.0593    0.0000 C   0  0
    9.0931  -19.6267    0.0000 C   0  0
   10.4709  -21.3277    0.0000 N   0  3
   11.1953  -20.9367    0.0000 O   0  0
   10.4452  -22.1542    0.0000 O   0  5
    3.4675  -16.9782    0.0000 C   0  0
    1.3165  -17.3299    0.0000 C   0  0
    0.6161  -16.8939    0.0000 C   0  0
    0.5739  -18.5472    0.0000 C   0  0
    1.2981  -18.1526    0.0000 C   0  0
   -0.1309  -18.1134    0.0000 C   0  0
   -0.1076  -17.2878    0.0000 C   0  0
    3.4120  -19.4568    0.0000 C   0  0
    4.8361  -17.8072    0.0000 H   0  0
    4.8367  -19.4641    0.0000 C   0  0  1  0  0  0
    4.1193  -19.8730    0.0000 C   0  0  2  0  0  0
    4.1148  -20.6941    0.0000 C   0  0
    4.8260  -21.1126    0.0000 C   0  0
    5.5434  -20.7037    0.0000 C   0  0
    5.5496  -19.8763    0.0000 C   0  0
    3.3995  -20.2795    0.0000 H   0  0
    5.5502  -19.0434    0.0000 H   0  0
   -0.8108  -16.8564    0.0000 C   0  0
   -0.7888  -16.0317    0.0000 O   0  0
   -1.5361  -17.2497    0.0000 O   0  0
   -2.2393  -16.8183    0.0000 C   0  0
    0.5521  -19.3719    0.0000 C   0  0
   -0.1730  -19.7654    0.0000 O   0  0
    1.2554  -19.8031    0.0000 O   0  0
   -0.1948  -20.5901    0.0000 C   0  0
  5 24  1  0
  5  6  1  0
  4 25  1  0
  6  1  1  0
 25 26  2  0
 26 30  1  0
  8 14  1  0
 29 27  1  0
 10 11  1  0
 27 28  2  0
 28 25  1  0
 29 30  2  0
 11 12  1  0
 12 13  1  0
 13 14  1  0
 33  2  1  0
  2  7  1  0
 34 31  1  0
 15 16  2  0
  2  3  1  0
  2 32  1  1
 33 34  1  0
 16 17  1  0
  7  8  1  0
 17 18  2  0
  1 31  1  0
 18 19  1  0
  7  9  2  0
 33 38  1  0
 34 35  1  0
 35 36  1  0
 36 37  1  0
 37 38  1  0
 19 20  2  0
 34 39  1  1
 20 15  1  0
 33 40  1  1
 30 41  1  0
 12 15  1  0
 41 42  2  0
  8 10  1  0
 41 43  1  0
  4  5  1  0
 43 44  1  0
 21 22  2  0
 27 45  1  0
 21 23  1  0
 45 46  1  0
 18 21  1  0
 45 47  2  0
  1  3  1  0
 46 48  1  0
M  CHG  2  21   1  23  -1
M  END