
  Mrv0541 05211314572D          

 23 24  0  0  0  0            999 V2000
    0.3464   -0.0507    0.0000 N   0  0  0  0  0  0  0  0  0  0  0  0
   -0.2989   -0.5647    0.0000 C   0  0  0  0  0  0  0  0  0  0  0  0
    0.2238    0.7652    0.0000 C   0  0  0  0  0  0  0  0  0  0  0  0
    0.8691    1.2792    0.0000 C   0  0  0  0  0  0  0  0  0  0  0  0
   -0.1763   -1.3806    0.0000 N   0  0  0  0  0  0  0  0  0  0  0  0
   -0.8216   -1.8946    0.0000 C   0  0  0  0  0  0  0  0  0  0  0  0
   -1.4175   -2.3107    0.0000 N   0  0  0  0  0  0  0  0  0  0  0  0
   -0.6690   -2.6576    0.0000 C   0  0  0  0  0  0  0  0  0  0  0  0
    0.7465    2.0951    0.0000 C   0  0  0  0  0  0  0  0  0  0  0  0
    1.6369    0.9775    0.0000 C   0  0  0  0  0  0  0  0  0  0  0  0
   -1.5602   -1.5623    0.0000 C   0  0  0  0  0  0  0  0  0  0  0  0
   -1.0667   -0.2630    0.0000 O   0  0  0  0  0  0  0  0  0  0  0  0
   -0.5440    1.0670    0.0000 O   0  0  0  0  0  0  0  0  0  0  0  0
    1.3918    2.6091    0.0000 C   0  0  0  0  0  0  0  0  0  0  0  0
    2.2822    1.4915    0.0000 C   0  0  0  0  0  0  0  0  0  0  0  0
    2.1596    2.3074    0.0000 C   0  0  0  0  0  0  0  0  0  0  0  0
   -2.3640   -1.9142    0.0000 C   0  0  0  0  0  0  0  0  0  0  0  0
   -1.5225   -0.6662    0.0000 C   0  0  0  0  0  0  0  0  0  0  0  0
   -2.2568   -2.6696    0.0000 C   0  0  0  0  0  0  0  0  0  0  0  0
   -1.2778   -1.2721    0.0000 C   0  0  0  0  0  0  0  0  0  0  0  0
    1.2692    3.4250    0.0000 Cl  0  0  0  0  0  0  0  0  0  0  0  0
    3.0500    1.1897    0.0000 Cl  0  0  0  0  0  0  0  0  0  0  0  0
    5.2893    0.0000    0.0000 Cl  0  0  0  0  0  0  0  0  0  0  0  0
  1  2  1  0  0  0  0
  1  3  1  0  0  0  0
  3  4  1  0  0  0  0
  2  5  1  0  0  0  0
  5  6  1  0  0  0  0
  6  8  1  0  0  0  0
  7  8  1  0  0  0  0
  4  9  1  0  0  0  0
  4 10  2  0  0  0  0
  6 11  1  0  0  0  0
  2 12  2  0  0  0  0
  3 13  2  0  0  0  0
  9 14  2  0  0  0  0
 10 15  1  0  0  0  0
 14 16  1  0  0  0  0
 15 16  2  0  0  0  0
 11 17  1  0  0  0  0
 11 18  1  0  0  0  0
  7 19  1  0  0  0  0
 17 19  1  0  0  0  0
  7 20  1  0  0  0  0
 18 20  1  0  0  0  0
 14 21  1  0  0  0  0
 15 22  1  0  0  0  0
M  END