
          05080814032D 1   1.00000     0.00000     0

 29 33  0     1  0            999 V2000
   12.2590  -17.0984    0.0000 C   0  0  0  0  0  0           0  0  0
   12.2590  -17.9280    0.0000 C   0  0  0  0  0  0           0  0  0
   12.9735  -18.3404    0.0000 N   0  0  3  0  0  0           0  0  0
   13.6923  -17.9280    0.0000 C   0  0  0  0  0  0           0  0  0
   13.6923  -17.0984    0.0000 C   0  0  0  0  0  0           0  0  0
   12.9735  -16.6815    0.0000 O   0  0  0  0  0  0           0  0  0
   12.9723  -19.1653    0.0000 C   0  0  0  0  0  0           0  0  0
   13.6861  -19.5788    0.0000 C   0  0  0  0  0  0           0  0  0
   13.6850  -20.4037    0.0000 C   0  0  0  0  0  0           0  0  0
   14.3988  -20.8171    0.0000 O   0  0  0  0  0  0           0  0  0
   15.1137  -20.4056    0.0000 C   0  0  0  0  0  0           0  0  0
   15.8249  -20.8204    0.0000 C   0  0  0  0  0  0           0  0  0
   15.8221  -19.1705    0.0000 C   0  0  0  0  0  0           0  0  0
   15.1106  -19.5837    0.0000 C   0  0  0  0  0  0           0  0  0
   16.5410  -19.5838    0.0000 C   0  0  0  0  0  0           0  0  0
   16.5394  -20.4118    0.0000 C   0  0  0  0  0  0           0  0  0
   17.9718  -19.5866    0.0000 C   0  0  0  0  0  0           0  0  0
   17.2549  -19.1689    0.0000 C   0  0  1  0  0  0           0  0  0
   17.9702  -20.4147    0.0000 N   0  0  3  0  0  0           0  0  0
   17.2515  -20.8205    0.0000 C   0  0  2  0  0  0           0  0  0
   17.4154  -21.6295    0.0000 C   0  0  0  0  0  0           0  0  0
   18.2355  -21.7236    0.0000 C   0  0  0  0  0  0           0  0  0
   18.5782  -20.9727    0.0000 C   0  0  0  0  0  0           0  0  0
   17.2554  -18.3440    0.0000 C   0  0  0  0  0  0           0  0  0
   16.5347  -21.2276    0.0000 H   0  0  0  0  0  0           0  0  0
   17.9200  -17.8573    0.0000 C   0  0  0  0  0  0           0  0  0
   17.6655  -17.0726    0.0000 C   0  0  0  0  0  0           0  0  0
   16.8406  -17.0721    0.0000 S   0  0  0  0  0  0           0  0  0
   16.5853  -17.8566    0.0000 C   0  0  0  0  0  0           0  0  0
 13 14  2  0     0  0
 14 11  1  0     0  0
 15 16  2  0     0  0
  3  7  1  0     0  0
  1  2  1  0     0  0
  7  8  1  0     0  0
  1  6  1  0     0  0
 15 18  1  0     0  0
 16 20  1  0     0  0
 19 17  1  0     0  0
 17 18  1  0     0  0
 19 20  1  0     0  0
  8  9  1  0     0  0
  2  3  1  0     0  0
  9 10  1  0     0  0
  3  4  1  0     0  0
 10 11  1  0     0  0
 20 21  1  0     0  0
 21 22  1  0     0  0
 22 23  1  0     0  0
 23 19  1  0     0  0
  4  5  1  0     0  0
 18 24  1  6     0  0
 11 12  2  0     0  0
 20 25  1  1     0  0
 24 26  1  0     0  0
 12 16  1  0     0  0
  5  6  1  0     0  0
 15 13  1  0     0  0
 26 27  2  0     0  0
 27 28  1  0     0  0
 28 29  1  0     0  0
 29 24  2  0     0  0
M  END