
          11280715332D 1   1.00000     0.00000     0

 34 38  0     0  0            999 V2000
    3.7292   -3.1000    0.0000 N   0  0  3  0  0  0           0  0  0
    5.1500   -3.1042    0.0000 C   0  0  3  0  0  0           0  0  0
    3.7167   -2.2792    0.0000 C   0  0  0  0  0  0           0  0  0
    8.2917   -2.0917    0.0000 C   0  0  3  0  0  0           0  0  0
    7.2875   -2.6792    0.0000 N   0  0  3  0  0  0           0  0  0
    9.0042   -1.6667    0.0000 N   0  0  3  0  0  0           0  0  0
    4.4417   -3.5167    0.0000 C   0  0  0  0  0  0           0  0  0
    5.1417   -3.9292    0.0000 C   0  0  0  0  0  0           0  0  0
    8.0875   -2.8875    0.0000 C   0  0  0  0  0  0           0  0  0
    7.4917   -1.8792    0.0000 C   0  0  0  0  0  0           0  0  0
    5.8417   -5.1667    0.0000 C   0  0  0  0  0  0           0  0  0
    5.8500   -4.3417    0.0000 C   0  0  0  0  0  0           0  0  0
    3.0167   -3.5167    0.0000 C   0  0  0  0  0  0           0  0  0
    5.1250   -5.5792    0.0000 C   0  0  0  0  0  0           0  0  0
    5.1542   -2.2792    0.0000 C   0  0  0  0  0  0           0  0  0
    4.4417   -1.8667    0.0000 C   0  0  0  0  0  0           0  0  0
   10.5792   -1.1917    0.0000 N   0  0  0  0  0  0           0  0  0
    3.0042   -1.8667    0.0000 O   0  0  0  0  0  0           0  0  0
    5.8625   -2.6917    0.0000 C   0  0  0  0  0  0           0  0  0
    4.4250   -4.3292    0.0000 C   0  0  0  0  0  0           0  0  0
    4.4167   -5.1542    0.0000 C   0  0  0  0  0  0           0  0  0
    6.5792   -3.0917    0.0000 C   0  0  0  0  0  0           0  0  0
    6.5542   -5.5875    0.0000 Cl  0  0  0  0  0  0           0  0  0
    5.1167   -6.4042    0.0000 Cl  0  0  0  0  0  0           0  0  0
    2.3000   -3.1042    0.0000 C   0  0  0  0  0  0           0  0  0
    9.6000   -2.2417    0.0000 C   0  0  0  0  0  0           0  0  0
    9.1917   -0.8667    0.0000 C   0  0  0  0  0  0           0  0  0
   10.3917   -2.0000    0.0000 C   0  0  0  0  0  0           0  0  0
    9.9792   -0.6292    0.0000 C   0  0  0  0  0  0           0  0  0
    1.5792   -3.5167    0.0000 C   0  0  0  0  0  0           0  0  0
    2.3000   -2.2750    0.0000 C   0  0  0  0  0  0           0  0  0
    0.8667   -3.1042    0.0000 C   0  0  0  0  0  0           0  0  0
    1.5792   -1.8625    0.0000 C   0  0  0  0  0  0           0  0  0
    0.8667   -2.2750    0.0000 C   0  0  0  0  0  0           0  0  0
  2  7  1  0     0  0
  3  1  1  0     0  0
  4 10  1  0     0  0
  5 22  1  0     0  0
  6  4  1  0     0  0
  7  1  1  0     0  0
  8  2  1  0     0  0
  9  5  1  0     0  0
 10  5  1  0     0  0
 11 12  2  0     0  0
 12  8  1  0     0  0
 13  1  1  0     0  0
 14 21  2  0     0  0
 15  2  1  0     0  0
 16  3  1  0     0  0
 17 29  1  0     0  0
 18  3  2  0     0  0
 19  2  1  0     0  0
 20  8  2  0     0  0
 21 20  1  0     0  0
 22 19  1  0     0  0
 23 11  1  0     0  0
 24 14  1  0     0  0
 25 13  1  0     0  0
 26  6  1  0     0  0
 27  6  1  0     0  0
 28 26  1  0     0  0
 29 27  1  0     0  0
 30 25  2  0     0  0
 31 25  1  0     0  0
 32 30  1  0     0  0
 33 31  2  0     0  0
 34 33  1  0     0  0
 15 16  1  0     0  0
 34 32  2  0     0  0
  9  4  1  0     0  0
 11 14  1  0     0  0
 28 17  1  0     0  0
M  END