
  SciTegic05071317012D

 19 20  0  0  0  0            999 V2000
   15.9338   -2.0182    0.0000 C   0  0
   15.9327   -2.8377    0.0000 C   0  0
   16.6407   -3.2467    0.0000 C   0  0
   17.3504   -2.8372    0.0000 C   0  0
   17.3475   -2.0146    0.0000 C   0  0
   16.6389   -1.6093    0.0000 C   0  0
   18.0587   -3.2447    0.0000 O   0  0
   18.0537   -1.6033    0.0000 C   0  0
   18.7630   -2.0092    0.0000 C   0  0
   18.0506   -0.7861    0.0000 O   0  0
   19.4691   -1.5980    0.0000 C   0  0
   20.1784   -2.0039    0.0000 C   0  0
   20.1783   -2.8200    0.0000 C   0  0
   20.8868   -3.2258    0.0000 C   0  0
   21.5939   -2.8145    0.0000 C   0  0
   21.5882   -1.9931    0.0000 C   0  0
   20.8792   -1.5910    0.0000 C   0  0
   15.2260   -1.6098    0.0000 Cl  0  0
   22.2929   -1.5794    0.0000 Cl  0  0
  1  2  2  0
  2  3  1  0
  3  4  2  0
  4  5  1  0
  5  6  2  0
  6  1  1  0
  4  7  1  0
  5  8  1  0
  8  9  1  0
  8 10  2  0
  9 11  2  0
 11 12  1  0
 12 13  2  0
 13 14  1  0
 14 15  2  0
 15 16  1  0
 16 17  2  0
 17 12  1  0
  1 18  1  0
 16 19  1  0
M  END