
  Mrv0541 04051115152D          

  8  8  0  0  0  0            999 V2000
    0.8794   -0.7218    0.0000 C   0  0  0  0  0  0  0  0  0  0  0  0
    0.1650   -1.1343    0.0000 C   0  0  0  0  0  0  0  0  0  0  0  0
    0.8794    0.1032    0.0000 C   0  0  0  0  0  0  0  0  0  0  0  0
   -0.5495   -0.7218    0.0000 C   0  0  0  0  0  0  0  0  0  0  0  0
    0.1650    0.5157    0.0000 C   0  0  0  0  0  0  0  0  0  0  0  0
   -0.5495    0.1032    0.0000 C   0  0  0  0  0  0  0  0  0  0  0  0
   -1.2640    0.5157    0.0000 N   0  0  0  0  0  0  0  0  0  0  0  0
    0.1650    1.3407    0.0000 F   0  0  0  0  0  0  0  0  0  0  0  0
  1  2  2  0  0  0  0
  3  1  1  0  0  0  0
  2  4  1  0  0  0  0
  5  3  2  0  0  0  0
  6  4  2  0  0  0  0
  6  5  1  0  0  0  0
  5  8  1  0  0  0  0
  6  7  1  0  0  0  0
M  END