
          11280714452D 1   1.00000     0.00000     0

 29 31  0     0  0            999 V2000
   -1.7500   -3.1417    0.0000 C   0  0  0  0  0  0           0  0  0
   -2.5083   -2.8125    0.0000 N   0  0  0  0  0  0           0  0  0
    6.8250   -1.4667    0.0000 C   0  0  0  0  0  0           0  0  0
   -1.8458   -3.9667    0.0000 N   0  0  0  0  0  0           0  0  0
    7.5375   -1.8750    0.0000 N   0  0  0  0  0  0           0  0  0
   -1.0333   -2.7292    0.0000 C   0  0  0  0  0  0           0  0  0
   -3.0583   -3.4250    0.0000 C   0  0  0  0  0  0           0  0  0
   -2.6458   -4.1292    0.0000 C   0  0  0  0  0  0           0  0  0
    6.8167   -0.6417    0.0000 O   0  0  0  0  0  0           0  0  0
    6.1042   -1.8792    0.0000 N   0  0  0  0  0  0           0  0  0
   -0.3208   -3.1417    0.0000 C   0  0  0  0  0  0           0  0  0
   -1.0333   -1.9042    0.0000 C   0  0  0  0  0  0           0  0  0
    1.1042   -1.4875    0.0000 O   0  0  0  0  0  0           0  0  0
    0.3917   -1.9042    0.0000 C   0  0  0  0  0  0           0  0  0
    2.5375   -1.4792    0.0000 C   0  0  3  0  0  0           0  0  0
    8.2542   -1.4625    0.0000 C   0  0  0  0  0  0           0  0  0
    1.8250   -1.8917    0.0000 C   0  0  0  0  0  0           0  0  0
   -0.3208   -1.4917    0.0000 C   0  0  0  0  0  0           0  0  0
    0.3917   -2.7292    0.0000 C   0  0  0  0  0  0           0  0  0
    3.9667   -1.4750    0.0000 N   0  0  0  0  0  0           0  0  0
    2.5292   -0.6542    0.0000 O   0  0  0  0  0  0           0  0  0
    3.2542   -1.8917    0.0000 C   0  0  0  0  0  0           0  0  0
    5.3917   -1.4667    0.0000 C   0  0  0  0  0  0           0  0  0
    4.6792   -1.8875    0.0000 C   0  0  0  0  0  0           0  0  0
    8.9667   -1.8750    0.0000 C   0  0  0  0  0  0           0  0  0
    8.2417   -0.6417    0.0000 C   0  0  0  0  0  0           0  0  0
    8.9542   -0.2167    0.0000 C   0  0  0  0  0  0           0  0  0
    9.6792   -1.4542    0.0000 C   0  0  0  0  0  0           0  0  0
    9.6792   -0.6292    0.0000 C   0  0  0  0  0  0           0  0  0
  2  1  2  0     0  0
  3 10  1  0     0  0
  4  1  1  0     0  0
  5  3  1  0     0  0
  6  1  1  0     0  0
  7  2  1  0     0  0
  8  4  1  0     0  0
  9  3  2  0     0  0
 10 23  1  0     0  0
 11  6  1  0     0  0
 12  6  2  0     0  0
 13 14  1  0     0  0
 14 18  2  0     0  0
 15 17  1  0     0  0
 16  5  1  0     0  0
 17 13  1  0     0  0
 18 12  1  0     0  0
 19 11  2  0     0  0
 20 22  1  0     0  0
 21 15  1  0     0  0
 22 15  1  0     0  0
 23 24  1  0     0  0
 24 20  1  0     0  0
 25 16  2  0     0  0
 26 16  1  0     0  0
 27 26  2  0     0  0
 28 25  1  0     0  0
 29 27  1  0     0  0
  7  8  2  0     0  0
 19 14  1  0     0  0
 28 29  2  0     0  0
M  END