
  SciTegic12091613522D

 39 44  0  0  0  0            999 V2000
   -2.6111    0.7486    0.0000 C   0  0
   -2.6111   -0.7486    0.0000 C   0  0
   -1.2964   -1.4973    0.0000 C   0  0
   -1.2964    1.4973    0.0000 C   0  0
    0.0000    0.7486    0.0000 C   0  0
    0.0000   -0.7486    0.0000 C   0  0
    1.2964   -1.4973    0.0000 C   0  0
    2.5929   -0.7486    0.0000 C   0  0
    2.5929    0.7486    0.0000 C   0  0
    1.2964    1.4973    0.0000 O   0  0
    1.2964   -2.6973    0.0000 O   0  0
    3.8942   -1.4964    0.0000 C   0  0
   12.7528    4.7079    0.0000 C   0  0
   12.2811    6.1266    0.0000 C   0  0
   10.7939    6.4391    0.0000 C   0  0
   11.7487    3.5672    0.0000 C   0  0
   10.2787    3.8854    0.0000 C   0  0
    9.8071    5.3041    0.0000 C   0  0
    8.3138    5.2880    0.0000 N   0  0
    7.8688    3.8527    0.0000 C   0  0
    9.0741    3.0233    0.0000 C   0  0
    9.0814    1.5225    0.0000 C   0  0
    7.7858    0.7649    0.0000 N   0  0
    7.7910   -0.7351    0.0000 C   0  0
    6.4946   -1.4896    0.0000 C   0  0
    5.1929   -0.7441    0.0000 N   0  0
    3.8963   -2.6964    0.0000 O   0  0
    7.4170    6.4913    0.0000 C   0  0
    5.9233    6.4293    0.0000 C   0  0
    5.1209    7.6966    0.0000 C   0  0
    5.8172    9.0252    0.0000 C   0  0
    7.3159    9.0865    0.0000 C   0  0
    8.1184    7.8192    0.0000 C   0  0
    6.4842    1.5104    0.0000 C   0  0
    5.1877    0.7559    0.0000 C   0  0
    8.0126   10.4158    0.0000 C   0  0
    7.3712   11.4301    0.0000 F   0  0
    9.2116   10.4645    0.0000 F   0  0
    8.5701   11.4785    0.0000 F   0  0
  1  2  2  0
  2  3  1  0
  3  6  2  0
  5  4  2  0
  4  1  1  0
  5  6  1  0
  5 10  1  0
  6  7  1  0
  7  8  1  0
  8  9  2  0
  9 10  1  0
  7 11  2  0
  8 12  1  0
 13 14  2  0
 14 15  1  0
 15 18  2  0
 17 16  2  0
 16 13  1  0
 17 18  1  0
 18 19  1  0
 19 20  1  0
 20 21  2  0
 21 17  1  0
 21 22  1  0
 22 23  1  0
 23 24  1  0
 24 25  1  0
 25 26  1  0
 26 12  1  0
 12 27  2  0
 28 29  2  0
 29 30  1  0
 30 31  2  0
 31 32  1  0
 32 33  2  0
 33 28  1  0
 19 28  1  0
 23 34  1  0
 26 35  1  0
 34 35  1  0
 36 37  1  0
 36 38  1  0
 36 39  1  0
 32 36  1  0
M  END