
          11280715062D 1   1.00000     0.00000     0

 33 37  0     0  0            999 V2000
    9.6667   -5.1250    0.0000 C   0  0  0  0  0  0           0  0  0
    9.6792   -4.3042    0.0000 C   0  0  0  0  0  0           0  0  0
    8.2500   -5.1167    0.0000 C   0  0  0  0  0  0           0  0  0
    8.9542   -5.5292    0.0000 O   0  0  0  0  0  0           0  0  0
    8.9667   -3.8875    0.0000 C   0  0  0  0  0  0           0  0  0
    8.2542   -4.2917    0.0000 C   0  0  0  0  0  0           0  0  0
   10.4500   -5.3792    0.0000 N   0  0  0  0  0  0           0  0  0
   10.9375   -4.7250    0.0000 N   0  0  0  0  0  0           0  0  0
    7.5375   -5.5292    0.0000 C   0  0  0  0  0  0           0  0  0
   10.4542   -4.0542    0.0000 N   0  0  0  0  0  0           0  0  0
    1.8792   -6.5542    0.0000 N   0  0  3  0  0  0           0  0  0
    7.5375   -3.8792    0.0000 C   0  0  0  0  0  0           0  0  0
    0.6417   -5.8417    0.0000 C   0  0  0  0  0  0           0  0  0
    3.5292   -6.5542    0.0000 N   0  0  3  0  0  0           0  0  0
    1.0542   -6.5542    0.0000 C   0  0  0  0  0  0           0  0  0
    6.8250   -5.1125    0.0000 C   0  0  0  0  0  0           0  0  0
    8.9750   -3.0625    0.0000 O   0  0  0  0  0  0           0  0  0
    1.0542   -5.1292    0.0000 C   0  0  0  0  0  0           0  0  0
    6.8250   -4.2917    0.0000 C   0  0  0  0  0  0           0  0  0
    2.3000   -7.2667    0.0000 C   0  0  0  0  0  0           0  0  0
    2.3000   -5.8375    0.0000 C   0  0  0  0  0  0           0  0  0
    3.1250   -5.8375    0.0000 C   0  0  0  0  0  0           0  0  0
    3.1250   -7.2667    0.0000 C   0  0  0  0  0  0           0  0  0
    1.8542   -5.3417    0.0000 Cl  0  0  0  0  0  0           0  0  0
    6.0042   -5.1250    0.0000 O   0  0  0  0  0  0           0  0  0
    7.5292   -6.3542    0.0000 C   0  0  0  0  0  0           0  0  0
    4.3542   -6.5542    0.0000 C   0  0  0  0  0  0           0  0  0
    4.7667   -5.8417    0.0000 C   0  0  0  0  0  0           0  0  0
   -0.1750   -5.8417    0.0000 C   0  0  0  0  0  0           0  0  0
    5.5917   -5.8417    0.0000 C   0  0  0  0  0  0           0  0  0
    0.6417   -4.4167    0.0000 C   0  0  0  0  0  0           0  0  0
   -0.5958   -5.1375    0.0000 C   0  0  0  0  0  0           0  0  0
   -0.1833   -4.4167    0.0000 C   0  0  0  0  0  0           0  0  0
  2  1  1  0     0  0
  3  4  1  0     0  0
  4  1  1  0     0  0
  5  2  2  0     0  0
  6  3  2  0     0  0
  7  1  2  0     0  0
  8  7  1  0     0  0
  9  3  1  0     0  0
 10  2  1  0     0  0
 11 20  1  0     0  0
 12  6  1  0     0  0
 13 15  1  0     0  0
 14 27  1  0     0  0
 15 11  1  0     0  0
 16  9  2  0     0  0
 17  5  1  0     0  0
 18 13  2  0     0  0
 19 16  1  0     0  0
 20 23  1  0     0  0
 21 22  1  0     0  0
 22 14  1  0     0  0
 23 14  1  0     0  0
 24 18  1  0     0  0
 25 16  1  0     0  0
 26  9  1  0     0  0
 27 28  1  0     0  0
 28 30  1  0     0  0
 29 13  1  0     0  0
 30 25  1  0     0  0
 31 18  1  0     0  0
 32 29  2  0     0  0
 33 32  1  0     0  0
  8 10  2  0     0  0
  5  6  1  0     0  0
 19 12  2  0     0  0
 21 11  1  0     0  0
 31 33  2  0     0  0
M  END