
  SciTegic05071317012D

 24 25  0  0  0  0            999 V2000
   12.7010   -3.4542    0.0000 C   0  0  1  0  0  0
   13.1182   -4.1660    0.0000 O   0  0
   13.9390   -4.1582    0.0000 C   0  0
   14.3468   -3.4458    0.0000 C   0  0  1  0  0  0
   13.9295   -2.7339    0.0000 C   0  0
   13.1045   -2.7347    0.0000 O   0  0
   15.1719   -3.4415    0.0000 N   0  3
   15.5881   -4.1539    0.0000 C   0  0
   15.5807   -2.7249    0.0000 C   0  0
   15.9933   -3.4379    0.0000 C   0  0
   11.8759   -3.4621    0.0000 C   0  0
   11.4566   -2.7516    0.0000 C   0  0
   11.4702   -4.1806    0.0000 C   0  0
   11.8656   -2.0353    0.0000 C   0  0
   11.4470   -1.3252    0.0000 C   0  0
   10.6210   -1.3326    0.0000 C   0  0
   10.2155   -2.0561    0.0000 C   0  0
   10.6365   -2.7632    0.0000 C   0  0
   10.6450   -4.1833    0.0000 C   0  0
   10.2394   -4.9010    0.0000 C   0  0
   10.6588   -5.6125    0.0000 C   0  0
   11.4881   -5.6019    0.0000 C   0  0
   11.8900   -4.8837    0.0000 C   0  0
   16.9351   -2.8794    0.0000 I   0  5
  1  2  1  0
  1  6  1  0
  2  3  1  0
  3  4  1  0
  4  5  1  0
  5  6  1  0
  4  7  1  1
  7  8  1  0
  7  9  1  0
  7 10  1  0
  1 11  1  6
 11 12  1  0
 11 13  1  0
 12 14  2  0
 14 15  1  0
 15 16  2  0
 16 17  1  0
 17 18  2  0
 18 12  1  0
 13 19  2  0
 19 20  1  0
 20 21  2  0
 21 22  1  0
 22 23  2  0
 23 13  1  0
M  CHG  2   7   1  24  -1
M  END