
  SciTegic06051315212D

  6  5  0  0  0  0            999 V2000
    7.6972  -11.1528    0.0000 C   0  0
    8.4110  -10.7390    0.0000 C   0  0
    6.9835  -10.7390    0.0000 C   0  0
    8.4110   -9.9154    0.0000 O   0  0
    9.1207  -11.1528    0.0000 N   0  0
    6.2718  -10.3305    0.0000 N   0  0
  1  2  1  0
  1  3  1  0
  2  4  2  0
  2  5  1  0
  3  6  3  0
M  END