
          11280715082D 1   1.00000     0.00000     0

 26 28  0     0  0            999 V2000
    4.0667   -1.9000    0.0000 C   0  0  0  0  0  0           0  0  0
    3.4542   -1.3417    0.0000 C   0  0  3  0  0  0           0  0  0
    2.9042   -2.5625    0.0000 C   0  0  3  0  0  0           0  0  0
    3.7250   -2.6542    0.0000 O   0  0  0  0  0  0           0  0  0
    2.7417   -1.7542    0.0000 O   0  0  0  0  0  0           0  0  0
    2.0250   -3.9500    0.0000 N   0  3  3  0  0  0           0  0  0
    2.0875   -2.5250    0.0000 C   0  0  0  0  0  0           0  0  0
    3.2917   -3.2875    0.0000 C   0  0  0  0  0  0           0  0  0
    4.8917   -1.9000    0.0000 O   0  0  0  0  0  0           0  0  0
    2.7417   -0.9292    0.0000 C   0  0  0  0  0  0           0  0  0
    4.1750   -0.9292    0.0000 C   0  0  0  0  0  0           0  0  0
    1.6417   -3.2167    0.0000 C   0  0  0  0  0  0           0  0  0
    2.8500   -3.9875    0.0000 C   0  0  0  0  0  0           0  0  0
    3.2750   -5.1542    0.0000 I   0  5  0  0  0  0           0  0  0
    2.2042   -4.7500    0.0000 C   0  0  0  0  0  0           0  0  0
    1.2167   -4.1292    0.0000 C   0  0  0  0  0  0           0  0  0
    4.1667   -0.1125    0.0000 C   0  0  0  0  0  0           0  0  0
    2.7500   -0.1042    0.0000 C   0  0  0  0  0  0           0  0  0
    2.0375   -1.3417    0.0000 C   0  0  0  0  0  0           0  0  0
    4.8875   -1.3500    0.0000 C   0  0  0  0  0  0           0  0  0
    2.0375    0.3083    0.0000 C   0  0  0  0  0  0           0  0  0
    1.3250   -0.9292    0.0000 C   0  0  0  0  0  0           0  0  0
    5.6000   -0.9375    0.0000 C   0  0  0  0  0  0           0  0  0
    4.8792    0.3000    0.0000 C   0  0  0  0  0  0           0  0  0
    1.3167   -0.1042    0.0000 C   0  0  0  0  0  0           0  0  0
    5.6042   -0.1125    0.0000 C   0  0  0  0  0  0           0  0  0
  2  1  1  0     0  0
  3  4  1  0     0  0
  4  1  1  0     0  0
  5  2  1  0     0  0
  6 13  1  0     0  0
  7  3  1  0     0  0
  8  3  1  0     0  0
  9  1  2  0     0  0
 10  2  1  0     0  0
 11  2  1  0     0  0
 12  7  1  0     0  0
 13  8  1  0     0  0
 15  6  1  0     0  0
 16  6  1  0     0  0
 17 11  1  0     0  0
 18 10  2  0     0  0
 19 10  1  0     0  0
 20 11  2  0     0  0
 21 18  1  0     0  0
 22 19  2  0     0  0
 23 20  1  0     0  0
 24 17  2  0     0  0
 25 22  1  0     0  0
 26 24  1  0     0  0
  5  3  1  0     0  0
 12  6  1  0     0  0
 26 23  2  0     0  0
 21 25  2  0     0  0
M  CHG  2   6   1  14  -1
M  END