
          11280715262D 1   1.00000     0.00000     0

 19 19  0     0  0            999 V2000
    7.1792   -1.8875    0.0000 C   0  0  0  0  0  0           0  0  0
    7.8917   -2.3000    0.0000 N   0  0  0  0  0  0           0  0  0
    3.6042   -2.2875    0.0000 N   0  0  3  0  0  0           0  0  0
    8.6125   -1.8917    0.0000 C   0  0  3  0  0  0           0  0  0
    9.3250   -2.3042    0.0000 C   0  0  3  0  0  0           0  0  0
    7.1792   -1.0625    0.0000 O   0  0  0  0  0  0           0  0  0
    6.4667   -2.2917    0.0000 O   0  0  0  0  0  0           0  0  0
    4.3250   -1.8792    0.0000 C   0  0  0  0  0  0           0  0  0
    5.0375   -2.2917    0.0000 C   0  0  0  0  0  0           0  0  0
    3.6125   -3.1125    0.0000 C   0  0  0  0  0  0           0  0  0
    2.9000   -1.8667    0.0000 C   0  0  0  0  0  0           0  0  0
   10.0417   -1.8917    0.0000 C   0  0  0  0  0  0           0  0  0
    9.3167   -3.1292    0.0000 C   0  0  0  0  0  0           0  0  0
   10.0375   -2.7167    0.0000 C   0  0  0  0  0  0           0  0  0
    9.1917   -1.3042    0.0000 C   0  0  0  0  0  0           0  0  0
    5.7542   -1.8792    0.0000 C   0  0  0  0  0  0           0  0  0
    2.8917   -3.5167    0.0000 C   0  0  0  0  0  0           0  0  0
    2.1875   -2.2750    0.0000 C   0  0  0  0  0  0           0  0  0
    2.1792   -3.1000    0.0000 C   0  0  0  0  0  0           0  0  0
  2  1  1  0     0  0
  3  8  1  0     0  0
  4  2  1  0     0  0
  5  4  1  0     0  0
  6  1  2  0     0  0
  7  1  1  0     0  0
  8  9  1  0     0  0
  9 16  1  0     0  0
 10  3  1  0     0  0
 11  3  1  0     0  0
 12  5  1  0     0  0
 13  5  1  0     0  0
 14  5  1  0     0  0
  4 15  1  0     0  0
 16  7  1  0     0  0
 17 10  1  0     0  0
 18 11  1  0     0  0
 19 18  1  0     0  0
 17 19  1  0     0  0
M  END