
  SciTegic12231509382D

 45 50  0  0  0  0            999 V2000
    2.4069   -0.7541    0.0000 N   0  0
    2.4058   -1.5815    0.0000 C   0  0
    3.1205   -1.9944    0.0000 N   0  0
    3.1187   -0.3413    0.0000 C   0  0
    3.8342   -0.7505    0.0000 C   0  0
    3.8349   -1.5773    0.0000 C   0  0
    4.5502   -1.9883    0.0000 N   0  0
    5.2652   -1.5735    0.0000 C   0  0
    5.2605   -0.7435    0.0000 N   0  0
    4.5446   -0.3364    0.0000 C   0  0
    1.6909   -1.9935    0.0000 N   0  0
    4.5519   -2.8133    0.0000 C   0  0
    5.9813   -1.9833    0.0000 O   0  0
    5.9724   -0.3267    0.0000 C   0  0
    6.6894   -0.7349    0.0000 C   0  0
    6.6897   -1.5595    0.0000 C   0  0
    7.4059   -1.9675    0.0000 C   0  0
    8.1188   -1.5506    0.0000 C   0  0
    8.1111   -0.7213    0.0000 C   0  0
    7.3944   -0.3170    0.0000 C   0  0
    3.8357   -3.2233    0.0000 C   0  0
    3.8370   -4.0476    0.0000 C   0  0
    4.5529   -4.4594    0.0000 C   0  0
    5.2689   -4.0411    0.0000 C   0  0
    5.2640   -3.2182    0.0000 C   0  0
    1.6903   -2.8185    0.0000 C   0  0
    0.9754   -3.2288    0.0000 C   0  0
    0.9744   -4.0531    0.0000 C   0  0
    1.6891   -4.4669    0.0000 C   0  0
    2.4063   -4.0505    0.0000 C   0  0
    2.4038   -3.2277    0.0000 C   0  0
    1.6895   -5.2919    0.0000 N   0  0
    0.9748   -5.7055    0.0000 C   0  0
    0.9733   -6.5269    0.0000 C   0  0
    1.6862   -6.9428    0.0000 N   0  0
    2.4022   -6.5312    0.0000 C   0  0
    2.4055   -5.7036    0.0000 C   0  0
    5.9857   -4.4495    0.0000 N   0  0
    5.9903   -5.2745    0.0000 C   0  0
    6.7071   -5.6830    0.0000 C   0  0
    6.7117   -6.5080    0.0000 C   0  0
    5.2782   -5.6910    0.0000 O   0  0
    1.6835   -7.7678    0.0000 C   0  0
    0.2617   -2.8149    0.0000 O   0  0
   -0.4548   -3.2261    0.0000 C   0  0
  1  2  2  0
  2  3  1  0
  3  6  2  0
  5  4  2  0
  4  1  1  0
  5  6  1  0
  6  7  1  0
  7  8  1  0
  8  9  1  0
  9 10  1  0
 10  5  1  0
  2 11  1  0
  7 12  1  0
  8 13  2  0
  9 14  1  0
 14 15  1  0
 15 16  2  0
 16 17  1  0
 17 18  2  0
 18 19  1  0
 19 20  2  0
 20 15  1  0
 12 21  2  0
 21 22  1  0
 22 23  2  0
 23 24  1  0
 24 25  2  0
 25 12  1  0
 11 26  1  0
 26 27  2  0
 27 28  1  0
 28 29  2  0
 29 30  1  0
 30 31  2  0
 31 26  1  0
 29 32  1  0
 32 33  1  0
 32 37  1  0
 33 34  1  0
 34 35  1  0
 35 36  1  0
 36 37  1  0
 24 38  1  0
 38 39  1  0
 39 40  1  0
 40 41  2  0
 39 42  2  0
 35 43  1  0
 27 44  1  0
 44 45  1  0
M  END