
  SciTegic04071410272D

 35 37  0  0  0  0            999 V2000
   -3.6841  -23.0515    0.0000 C   0  0  1  0  0  0
   -2.5992  -23.8616    0.0000 C   0  0  2  0  0  0
   -3.1238  -23.4292    0.0000 C   0  0
   -4.1095  -23.4292    0.0000 C   0  0  1  0  0  0
   -4.2493  -22.6047    0.0000 N   0  3
   -2.7418  -23.0333    0.0000 C   0  0
   -4.6376  -24.1492    0.0000 C   0  0
   -4.0055  -23.7682    0.0000 C   0  0
   -2.1850  -24.5751    0.0000 C   0  0
   -1.3600  -24.5732    0.0000 C   0  0
   -0.9459  -25.2867    0.0000 C   0  0
   -1.1500  -23.7708    0.0000 C   0  0
   -0.9400  -22.9685    0.0000 N   0  0
   -0.5667  -24.3542    0.0000 C   0  0
   -1.3579  -25.9988    0.0000 C   0  0
   -0.9445  -26.7118    0.0000 C   0  0
   -0.1186  -26.7103    0.0000 C   0  0
    0.2921  -25.9899    0.0000 C   0  0
   -0.1238  -25.2798    0.0000 C   0  0
    0.0185  -24.9345    0.0000 C   0  0
    0.8113  -24.7160    0.0000 C   0  0
    1.0189  -23.9186    0.0000 C   0  0
    0.4277  -23.3400    0.0000 C   0  0
   -0.3628  -23.5615    0.0000 C   0  0
   -5.0500  -22.3875    0.0000 C   0  0
   -3.8417  -21.8875    0.0000 C   0  0
   -4.2590  -21.1758    0.0000 C   0  0
   -3.8513  -20.4586    0.0000 O   0  0
   -4.2686  -19.7469    0.0000 C   0  0
   -3.8609  -19.0297    0.0000 C   0  0
   -4.2782  -18.3180    0.0000 O   0  0
   -3.8705  -17.6008    0.0000 C   0  0
   -2.8750  -22.3125    0.0000 Br  0  5
   -4.9123  -23.2392    0.0000 H   0  0
   -3.4208  -22.2696    0.0000 H   0  0
  4  7  1  0
 15 16  1  0
  1  8  1  0
 16 17  2  0
  7  8  1  0
 17 18  1  0
 18 19  2  0
 19 11  1  0
  2  9  1  6
 14 20  2  0
  2  3  1  0
 20 21  1  0
  9 10  1  0
 21 22  2  0
  3  4  1  0
 22 23  1  0
 10 11  1  0
 23 24  2  0
 24 14  1  0
  4  5  1  0
  5 25  1  0
 10 12  1  0
  5 26  1  0
  5  1  1  0
 26 27  1  0
 12 13  3  0
 27 28  1  0
  1  6  1  0
 28 29  1  0
 10 14  1  0
 29 30  1  0
  6  2  1  0
 30 31  1  0
 11 15  2  0
 31 32  1  0
  4 34  1  1
  1 35  1  6
M  CHG  2   5   1  33  -1
M  END