
          11280715332D 1   1.00000     0.00000     0

 46 47  0     1  0            999 V2000
    2.3792   -3.2917    0.0000 C   0  0  1  0  0  0           0  0  0
    4.5250   -2.8792    0.0000 C   0  0  1  0  0  0           0  0  0
    1.6667   -2.8792    0.0000 C   0  0  0  0  0  0           0  0  0
    5.2375   -3.2917    0.0000 C   0  0  0  0  0  0           0  0  0
    3.0917   -2.8792    0.0000 C   0  0  1  0  0  0           0  0  0
    3.8042   -3.2917    0.0000 C   0  0  1  0  0  0           0  0  0
    0.9542   -3.2917    0.0000 N   0  0  3  0  0  0           0  0  0
    5.9542   -2.8792    0.0000 N   0  0  3  0  0  0           0  0  0
    0.2375   -2.8792    0.0000 C   0  0  3  0  0  0           0  0  0
    6.6667   -3.2917    0.0000 C   0  0  3  0  0  0           0  0  0
    4.5250   -2.0542    0.0000 O   0  0  0  0  0  0           0  0  0
    2.3792   -4.1167    0.0000 O   0  0  0  0  0  0           0  0  0
    6.6667   -4.1167    0.0000 C   0  0  0  0  0  0           0  0  0
    0.2375   -2.0542    0.0000 C   0  0  0  0  0  0           0  0  0
    1.6667   -2.0542    0.0000 O   0  0  0  0  0  0           0  0  0
    5.2375   -4.1167    0.0000 O   0  0  0  0  0  0           0  0  0
    5.9542   -4.5292    0.0000 O   0  0  0  0  0  0           0  0  0
    0.9542   -1.6417    0.0000 O   0  0  0  0  0  0           0  0  0
    3.8042   -4.1167    0.0000 O   0  0  0  0  0  0           0  0  0
    3.0917   -2.0542    0.0000 O   0  0  0  0  0  0           0  0  0
    5.3042   -1.6250    0.0000 C   0  0  0  0  0  0           0  0  0
    1.6667   -4.5375    0.0000 C   0  0  0  0  0  0           0  0  0
   -0.4750   -3.2917    0.0000 C   0  0  0  0  0  0           0  0  0
    7.3792   -2.8792    0.0000 C   0  0  0  0  0  0           0  0  0
    7.3792   -4.5292    0.0000 O   0  0  0  0  0  0           0  0  0
   -0.4750   -1.6417    0.0000 O   0  0  0  0  0  0           0  0  0
    0.9542   -4.1167    0.0000 C   0  0  0  0  0  0           0  0  0
    5.9542   -2.0542    0.0000 C   0  0  0  0  0  0           0  0  0
   -1.9083   -3.2917    0.0000 S   0  0  0  0  0  0           0  0  0
    8.8125   -2.8792    0.0000 S   0  0  0  0  0  0           0  0  0
    1.6667   -5.3625    0.0000 C   0  0  0  0  0  0           0  0  0
    5.2792   -0.8000    0.0000 C   0  0  0  0  0  0           0  0  0
    8.0917   -3.2917    0.0000 C   0  0  0  0  0  0           0  0  0
   -1.1958   -2.8792    0.0000 C   0  0  0  0  0  0           0  0  0
   -2.6208   -2.8792    0.0000 C   0  0  0  0  0  0           0  0  0
    9.5250   -3.2917    0.0000 C   0  0  0  0  0  0           0  0  0
    2.3792   -5.7667    0.0000 C   0  0  0  0  0  0           0  0  0
    4.5417   -0.4042    0.0000 C   0  0  0  0  0  0           0  0  0
    5.9792   -0.3542    0.0000 C   0  0  0  0  0  0           0  0  0
    0.9500   -5.7750    0.0000 C   0  0  0  0  0  0           0  0  0
    5.9500    0.4708    0.0000 C   0  0  0  0  0  0           0  0  0
    4.5167    0.4208    0.0000 C   0  0  0  0  0  0           0  0  0
    0.9500   -6.6000    0.0000 C   0  0  0  0  0  0           0  0  0
    2.3792   -6.5917    0.0000 C   0  0  0  0  0  0           0  0  0
    1.6667   -7.0125    0.0000 C   0  0  0  0  0  0           0  0  0
    5.2167    0.8500    0.0000 C   0  0  0  0  0  0           0  0  0
  2  6  1  0     0  0
  3  1  1  0     0  0
  4  2  1  0     0  0
  5  1  1  0     0  0
  6  5  1  0     0  0
  7  3  1  0     0  0
  8  4  1  0     0  0
  9  7  1  0     0  0
 10  8  1  0     0  0
  2 11  1  1     0  0
  1 12  1  1     0  0
 13 10  1  0     0  0
 14  9  1  0     0  0
 15  3  2  0     0  0
 16  4  2  0     0  0
 17 13  2  0     0  0
 18 14  2  0     0  0
  6 19  1  6     0  0
  5 20  1  6     0  0
 21 11  1  0     0  0
 22 12  1  0     0  0
 23  9  1  0     0  0
 24 10  1  0     0  0
 25 13  1  0     0  0
 26 14  1  0     0  0
 27  7  1  0     0  0
 28  8  1  0     0  0
 29 34  1  0     0  0
 30 33  1  0     0  0
 31 22  1  0     0  0
 32 21  1  0     0  0
 33 24  1  0     0  0
 34 23  1  0     0  0
 35 29  1  0     0  0
 36 30  1  0     0  0
 37 31  1  0     0  0
 38 32  1  0     0  0
 39 32  2  0     0  0
 40 31  2  0     0  0
 41 39  1  0     0  0
 42 38  2  0     0  0
 43 40  1  0     0  0
 44 37  2  0     0  0
 45 43  2  0     0  0
 46 41  2  0     0  0
 44 45  1  0     0  0
 46 42  1  0     0  0
M  END