
  CDK    9/16/09,9:50

 43 46  0  0  0  0  0  0  0  0999 V2000
    7.4276  -23.8245    0.0000 C   0  0  0  0  0  0  0  0  0  0  0  0
    7.4592  -21.3476    0.0000 C   0  0  0  0  0  0  0  0  0  0  0  0
    6.7471  -20.9247    0.0000 C   0  0  0  0  0  0  0  0  0  0  0  0
    6.0311  -21.3263    0.0000 C   0  0  0  0  0  0  0  0  0  0  0  0
    6.0164  -22.1507    0.0000 C   0  0  0  0  0  0  0  0  0  0  0  0
    6.7235  -22.5736    0.0000 C   0  0  0  0  0  0  0  0  0  0  0  0
    7.4485  -22.1780    0.0000 O   0  0  0  0  0  0  0  0  0  0  0  0
    6.7119  -23.4081    0.0000 O   0  0  0  0  0  0  0  0  0  0  0  0
    5.3220  -20.8971    0.0000 N   0  0  0  0  0  0  0  0  0  0  0  0
    6.7648  -20.1053    0.0000 O   0  0  0  0  0  0  0  0  0  0  0  0
    8.1825  -20.9487    0.0000 C   0  0  0  0  0  0  0  0  0  0  0  0
    5.2896  -22.5473    0.0000 O   0  0  0  0  0  0  0  0  0  0  0  0
    7.4219  -24.6551    0.0000 C   0  0  0  0  0  0  0  0  0  0  0  0
    8.1334  -25.0715    0.0000 O   0  0  0  0  0  0  0  0  0  0  0  0
    8.8544  -24.6636    0.0000 C   0  0  0  0  0  0  0  0  0  0  0  0
    8.8593  -23.8345    0.0000 C   0  0  0  0  0  0  0  0  0  0  0  0
    8.1432  -23.4136    0.0000 C   0  0  0  0  0  0  0  0  0  0  0  0
    8.1474  -22.5888    0.0000 O   0  0  0  0  0  0  0  0  0  0  0  0
    9.5763  -23.4272    0.0000 N   0  0  0  0  0  0  0  0  0  0  0  0
    9.5656  -25.0811    0.0000 O   0  0  0  0  0  0  0  0  0  0  0  0
    9.5596  -25.9059    0.0000 C   0  0  0  0  0  0  0  0  0  0  0  0
    6.7104  -24.2300    0.0000 H   0  0  0  0  0  0  0  0  0  0  0  0
    6.7050  -25.0629    0.0000 C   0  0  0  0  0  0  0  0  0  0  0  0
    6.6997  -25.8876    0.0000 O   0  0  0  0  0  0  0  0  0  0  0  0
   10.2877  -23.8444    0.0000 C   0  0  0  0  0  0  0  0  0  0  0  0
   11.0049  -23.4371    0.0000 C   0  0  0  0  0  0  0  0  0  0  0  0
   10.2820  -24.6692    0.0000 O   0  0  0  0  0  0  0  0  0  0  0  0
    8.1987  -20.1242    0.0000 O   0  0  0  0  0  0  0  0  0  0  0  0
    5.3388  -20.0726    0.0000 C   0  0  0  0  0  0  0  0  0  0  0  0
    4.6333  -19.6456    0.0000 C   0  0  0  0  0  0  0  0  0  0  0  0
    6.0614  -19.6750    0.0000 O   0  0  0  0  0  0  0  0  0  0  0  0
    4.6543  -18.8219    0.0000 C   0  0  0  0  0  0  0  0  0  0  0  0
    3.9495  -18.3950    0.0000 C   0  0  0  0  0  0  0  0  0  0  0  0
    3.9170  -20.0447    0.0000 C   0  0  0  0  0  0  0  0  0  0  0  0
    3.2115  -19.6215    0.0000 C   0  0  0  0  0  0  0  0  0  0  0  0
    3.2262  -18.7930    0.0000 C   0  0  0  0  0  0  0  0  0  0  0  0
    2.5171  -18.3678    0.0000 C   0  0  0  0  0  0  0  0  0  0  0  0
    1.7928  -18.7700    0.0000 C   0  0  0  0  0  0  0  0  0  0  0  0
    1.7821  -19.6018    0.0000 C   0  0  0  0  0  0  0  0  0  0  0  0
    2.4919  -20.0233    0.0000 C   0  0  0  0  0  0  0  0  0  0  0  0
    5.3800  -18.4234    0.0000 C   0  0  0  0  0  0  0  0  0  0  0  0
    6.0845  -18.8522    0.0000 O   0  0  0  0  0  0  0  0  0  0  0  0
    5.3992  -17.5989    0.0000 O   0  0  0  0  0  0  0  0  0  0  0  0
 20 21  1  0  0  0  0 
  3 10  1  1  0  0  0 
  1 22  1  6  0  0  0 
  2 11  1  1  0  0  0 
 13 23  1  6  0  0  0 
  8  1  1  0  0  0  0 
 23 24  1  0  0  0  0 
  5 12  1  6  0  0  0 
 19 25  1  0  0  0  0 
  1 13  1  0  0  0  0 
 25 26  1  0  0  0  0 
 25 27  2  0  0  0  0 
  2  3  1  0  0  0  0 
 11 28  1  0  0  0  0 
  2  7  1  0  0  0  0 
  9 29  1  0  0  0  0 
  3  4  1  0  0  0  0 
 29 30  1  0  0  0  0 
  4  5  1  0  0  0  0 
 29 31  2  0  0  0  0 
  1 17  1  0  0  0  0 
 30 32  2  0  0  0  0 
 13 14  1  0  0  0  0 
 32 33  1  0  0  0  0 
 33 36  2  0  0  0  0 
 14 15  1  0  0  0  0 
 35 34  2  0  0  0  0 
 34 30  1  0  0  0  0 
 15 16  1  0  0  0  0 
 16 17  1  0  0  0  0 
 35 36  1  0  0  0  0 
  5  6  1  0  0  0  0 
 36 37  1  0  0  0  0 
 17 18  1  6  0  0  0 
 37 38  2  0  0  0  0 
  6  7  1  0  0  0  0 
 38 39  1  0  0  0  0 
 16 19  1  1  0  0  0 
 39 40  2  0  0  0  0 
 40 35  1  0  0  0  0 
  6  8  1  1  0  0  0 
 15 20  1  6  0  0  0 
  4  9  1  1  0  0  0 
 41 42  1  0  0  0  0 
 41 43  2  0  0  0  0 
 32 41  1  0  0  0  0 
M  END