
  SciTegic04091415222D

 29 33  0  0  0  0            999 V2000
   10.8532  -22.8359    0.0000 C   0  0
   12.2669  -22.8323    0.0000 C   0  0
   11.5583  -22.4271    0.0000 C   0  0
   12.2698  -23.6550    0.0000 C   0  0
   12.2659  -25.2901    0.0000 C   0  0
   12.9771  -24.8778    0.0000 C   0  0
   12.9752  -24.0621    0.0000 C   0  0
   11.5593  -24.0623    0.0000 C   0  0
   10.8520  -23.6555    0.0000 C   0  0
   10.1482  -24.0644    0.0000 C   0  0
   10.1504  -24.8801    0.0000 O   0  0
   10.8623  -25.2850    0.0000 C   0  0
   11.5632  -24.8737    0.0000 C   0  0
   12.9701  -22.4224    0.0000 C   0  0
   13.6796  -22.8300    0.0000 N   0  0
   14.3853  -22.4194    0.0000 C   0  0
   14.3826  -21.6013    0.0000 N   0  0
   13.6684  -21.1956    0.0000 C   0  0
   12.9657  -21.6085    0.0000 N   0  0
   11.5559  -21.6099    0.0000 Cl  0  0
   13.6625  -20.3784    0.0000 N   0  0
   15.0943  -22.8257    0.0000 S   0  0
   15.8007  -22.4148    0.0000 C   0  0
   16.4671  -22.8873    0.0000 C   0  0  1  0  0  0
   16.4786  -23.7034    0.0000 C   0  0
   17.2588  -23.9466    0.0000 N   0  0
   17.7312  -23.2798    0.0000 C   0  0
   17.2429  -22.6245    0.0000 O   0  0
   18.5484  -23.2699    0.0000 O   0  0
  1  9  2  0
  4  2  1  0
  2  3  2  0
  3  1  1  0
  4  8  1  0
 13  5  1  0
  5  6  2  0
  6  7  1  0
  7  4  2  0
  8  9  1  0
  9 10  1  0
 10 11  1  0
 11 12  1  0
 12 13  1  0
 13  8  2  0
 14 15  2  0
 15 16  1  0
 16 17  2  0
 17 18  1  0
 18 19  2  0
 19 14  1  0
  2 14  1  0
  3 20  1  0
 18 21  1  0
 16 22  1  0
 22 23  1  0
 24 23  1  6
 24 25  1  0
 25 26  1  0
 26 27  1  0
 27 28  1  0
 24 28  1  0
 27 29  2  0
M  END