
  SciTegic09261414462D

140149  0  0  0  0            999 V2000
    4.5096  -15.9131    0.0000 C   0  0  2  0  0  0
    7.3318  -15.0277    0.0000 O   0  0
    5.1934  -14.6609    0.0000 O   0  0
    5.9217  -15.0552    0.0000 H   0  0
    5.8685  -11.7915    0.0000 O   0  0
    7.2876  -13.3762    0.0000 C   0  0  1  0  0  0
    4.4457  -11.7838    0.0000 C   0  0
    6.6101  -14.6300    0.0000 O   0  0
    5.1477  -13.0213    0.0000 N   0  0
    3.8229  -17.1516    0.0000 O   0  0
    3.7922  -15.5167    0.0000 O   0  0
    5.2629  -17.9543    0.0000 O   0  0
    8.0335  -14.5862    0.0000 C   0  0
    4.5240  -16.7270    0.0000 C   0  0  1  0  0  0
    7.3091  -14.1981    0.0000 C   0  0  2  0  0  0
    8.0539  -15.4062    0.0000 O   0  0
    5.8927  -14.2333    0.0000 C   0  0  2  0  0  0
    5.2414  -17.1234    0.0000 C   0  0  1  0  0  0
    5.8712  -13.4154    0.0000 C   0  0  1  0  0  0
    7.9886  -12.9475    0.0000 O   0  0
    5.2073  -15.4840    0.0000 C   0  0  2  0  0  0
    5.9263  -15.8820    0.0000 C   0  0  1  0  0  0
    5.1551  -12.1996    0.0000 C   0  0
    6.5489  -12.1699    0.0000 O   0  0
    7.3497  -15.8469    0.0000 O   0  0
    6.6311  -15.4526    0.0000 C   0  0
    6.5670  -12.9901    0.0000 C   0  0  1  0  0  0
    5.9480  -16.7039    0.0000 O   0  0
   13.8490  -21.9511    0.0000 C   0  0  2  0  0  0
    5.2896  -19.5840    0.0000 N   0  0
   11.6939  -19.9253    0.0000 O   0  0
   12.4223  -21.9689    0.0000 O   0  0
   12.4091  -21.1409    0.0000 H   0  0
   11.7740  -24.0145    0.0000 O   0  0
   10.2760  -20.7733    0.0000 C   0  0  1  0  0  0
    6.6838  -17.9355    0.0000 C   0  0  2  0  0  0
    6.7212  -20.3920    0.0000 O   0  0
    6.6678  -17.1138    0.0000 O   0  0
   12.4376  -22.7560    0.0000 C   0  0
    5.9634  -20.8331    0.0000 C   0  0
   11.7010  -20.7493    0.0000 O   0  0
    8.8680  -20.7817    0.0000 O   0  0
   11.0158  -22.8074    0.0000 N   0  0
    5.2671  -20.4034    0.0000 C   0  0
   15.2651  -21.9426    0.0000 O   0  0
   13.8551  -22.7707    0.0000 O   0  0
    8.1685  -22.8408    0.0000 O   0  0
   15.2598  -20.2932    0.0000 O   0  0
    7.4170  -19.1563    0.0000 O   0  0
   10.9651  -19.5300    0.0000 C   0  0
   14.5513  -21.5396    0.0000 C   0  0  1  0  0  0
    8.8238  -18.3101    0.0000 O   0  0
    7.4514  -21.6159    0.0000 C   0  0  1  0  0  0
    9.5721  -21.1861    0.0000 H   0  0
   10.9819  -20.3517    0.0000 C   0  0  2  0  0  0
   11.6698  -19.1103    0.0000 O   0  0
    8.8451  -19.1426    0.0000 O   0  0
   11.7069  -21.5690    0.0000 C   0  0  2  0  0  0
    7.4049  -18.3370    0.0000 C   0  0  2  0  0  0
    6.7124  -19.5723    0.0000 C   0  0  2  0  0  0
    8.1057  -17.9107    0.0000 C   0  0
    4.5448  -20.7909    0.0000 O   0  0
    8.8696  -21.6014    0.0000 C   0  0  1  0  0  0
   14.5452  -20.7200    0.0000 C   0  0  1  0  0  0
   11.0045  -21.9886    0.0000 C   0  0  1  0  0  0
    5.9831  -18.3575    0.0000 C   0  0  1  0  0  0
    9.5588  -20.3725    0.0000 O   0  0
    8.1348  -18.7367    0.0000 O   0  0
   13.1329  -21.5534    0.0000 C   0  0  2  0  0  0
   13.1274  -20.7316    0.0000 C   0  0  1  0  0  0
    6.7413  -22.0337    0.0000 O   0  0
   11.7413  -23.1933    0.0000 C   0  0
    8.1383  -19.5587    0.0000 C   0  0
    9.5867  -22.0084    0.0000 O   0  0
   12.3991  -19.5081    0.0000 O   0  0
   12.4076  -20.3277    0.0000 C   0  0
    7.4388  -20.7986    0.0000 C   0  0  1  0  0  0
    5.9955  -19.1749    0.0000 C   0  0  1  0  0  0
   10.2927  -21.5907    0.0000 C   0  0  1  0  0  0
    8.1510  -20.3804    0.0000 C   0  0  2  0  0  0
   13.8332  -20.3097    0.0000 O   0  0
    8.1652  -22.0175    0.0000 C   0  0  2  0  0  0
    7.4329  -19.9673    0.0000 H   0  0
   14.6435  -10.8462    0.0000 C   0  0  2  0  0  0
   16.6846  -19.4874    0.0000 N   0  0
   13.9014  -13.7094    0.0000 O   0  0
   15.3442  -12.0891    0.0000 O   0  0
   14.6243  -12.4984    0.0000 H   0  0
   17.4498  -11.6754    0.0000 O   0  0
   15.3262  -14.5459    0.0000 C   0  0  1  0  0  0
   14.5620  -19.0595    0.0000 C   0  0  2  0  0  0
   16.6987  -17.8471    0.0000 O   0  0
   13.8490  -19.4682    0.0000 O   0  0
   16.0272  -11.6977    0.0000 C   0  0
   17.3843  -20.7223    0.0000 C   0  0
   14.6208  -13.3075    0.0000 O   0  0
   16.0097  -15.7769    0.0000 O   0  0
   16.7551  -12.9202    0.0000 N   0  0
   16.6792  -20.3071    0.0000 C   0  0
   13.9560   -9.6082    0.0000 O   0  0
   15.3594  -10.4473    0.0000 O   0  0
   18.1517  -15.4016    0.0000 O   0  0
   15.2808  -17.8302    0.0000 O   0  0
   13.9047  -14.5385    0.0000 C   0  0
   13.9452  -10.4278    0.0000 C   0  0  1  0  0  0
   13.8629  -17.0025    0.0000 O   0  0
   17.4217  -16.6189    0.0000 C   0  0  1  0  0  0
   16.0263  -14.9650    0.0000 H   0  0
   14.6173  -14.1292    0.0000 C   0  0  2  0  0  0
   13.1981  -14.1219    0.0000 O   0  0
   14.5829  -16.5841    0.0000 O   0  0
   15.3370  -12.9087    0.0000 C   0  0  2  0  0  0
   14.5679  -18.2342    0.0000 C   0  0  2  0  0  0
   15.9840  -18.2485    0.0000 C   0  0  2  0  0  0
   13.8574  -17.8243    0.0000 C   0  0
   15.9651  -20.7095    0.0000 O   0  0
   16.7279  -15.3819    0.0000 C   0  0  1  0  0  0
   13.2294  -10.8249    0.0000 C   0  0  1  0  0  0
   16.0423  -13.3233    0.0000 C   0  0  1  0  0  0
   15.2686  -19.4716    0.0000 C   0  0  1  0  0  0
   15.3190  -15.3675    0.0000 O   0  0
   14.5680  -17.4020    0.0000 O   0  0
   14.6385  -11.6653    0.0000 C   0  0  2  0  0  0
   13.9203  -12.0648    0.0000 C   0  0  1  0  0  0
   18.1291  -17.0411    0.0000 O   0  0
   16.7452  -12.0985    0.0000 C   0  0
   15.2873  -17.0042    0.0000 C   0  0
   16.7406  -14.5574    0.0000 O   0  0
   13.1969  -13.2912    0.0000 O   0  0
   13.9117  -12.8901    0.0000 C   0  0
   16.7108  -17.0224    0.0000 C   0  0  1  0  0  0
   15.9798  -19.0681    0.0000 C   0  0  1  0  0  0
   16.0351  -14.1387    0.0000 C   0  0  1  0  0  0
   16.0020  -16.5985    0.0000 C   0  0  2  0  0  0
   13.2113  -11.6483    0.0000 O   0  0
   17.4311  -15.7999    0.0000 C   0  0  2  0  0  0
   15.9845  -17.4268    0.0000 H   0  0
   14.5402  -19.9015    0.0000 H   0  0
   12.5042  -10.4459    0.0000 O   0  0
    6.0546  -17.1197    0.0000 H   0  0
 21  1  1  0
  6 20  1  6
 27 24  1  1
 19 17  1  0
 15  6  1  0
 18 12  1  0
 15 13  1  1
 23  7  1  0
  1 14  1  0
 22 26  1  1
 22 28  1  0
 23  5  2  0
 26  2  2  0
 17  4  1  6
 17  3  1  0
 19  9  1  6
 21  3  1  6
 27 19  1  0
 18 28  1  0
 22 21  1  0
 26 25  1  0
 14 18  1  0
 17  8  1  0
  6 27  1  0
 15  8  1  0
  1 11  1  1
  9 23  1  0
 14 10  1  6
 13 16  1  0
 53 82  1  0
 80 77  1  0
 63 74  1  0
 60 83  1  6
 69 29  1  0
 35 67  1  6
 79 74  1  1
 65 58  1  0
 55 35  1  0
 64 48  1  0
 59 49  1  0
 55 50  1  1
 72 39  1  0
 29 51  1  0
 63 42  1  0
 60 49  1  0
 70 76  1  1
 77 37  1  6
 36 66  1  0
 70 81  1  0
 72 34  2  0
 66 78  1  0
 76 31  2  0
 53 71  1  1
 59 36  1  0
 66 12  1  1
 58 33  1  6
 82 63  1  0
 58 32  1  0
 30 44  1  0
 65 43  1  6
 73 68  2  0
 69 32  1  6
 79 65  1  0
 64 81  1  0
 82 47  1  6
 36 38  1  6
 70 69  1  0
 76 75  1  0
 80 42  1  0
 63 54  1  6
 51 64  1  0
 58 41  1  0
 78 60  1  0
 35 79  1  0
 44 40  1  0
 44 62  2  0
 55 41  1  0
 73 57  1  0
 77 53  1  0
 80 73  1  1
 29 46  1  1
 59 61  1  1
 43 72  1  0
 51 45  1  6
 60 37  1  0
 50 56  1  0
 78 30  1  6
 61 52  1  0
107136  1  0
134131  1  0
117128  1  0
114137  1  6
123 84  1  0
 90121  1  6
133128  1  1
119112  1  0
109 90  1  0
113103  1  0
109104  1  1
126 94  1  0
 84105  1  0
117 97  1  0
114103  1  0
124130  1  1
131 92  1  6
 91120  1  0
124135  1  0
126 89  2  0
120132  1  0
130 86  2  0
107125  1  1
113 91  1  0
120 48  1  1
112 88  1  6
136117  1  0
112 87  1  0
 85 99  1  0
119 98  1  6
127122  2  0
123 87  1  6
133119  1  0
118135  1  0
136102  1  6
 91 93  1  6
124123  1  0
130129  1  0
134 97  1  0
117108  1  6
105118  1  0
112 96  1  0
132114  1  0
 90133  1  0
 99 95  1  0
 99116  2  0
109 96  1  0
127111  1  0
131107  1  0
134127  1  1
 84101  1  1
113115  1  1
 98126  1  0
105100  1  6
114 92  1  0
104110  1  0
132 85  1  6
115106  1  0
 64138  1  6
118139  1  1
 18140  1  6
M  END