
  SciTegic05071317032D

 24 24  0  0  0  0            999 V2000
    7.8457   -5.7779    0.0000 N   0  0
    7.8465   -6.5982    0.0000 C   0  0
    8.5517   -7.0040    0.0000 C   0  0
    9.2602   -6.5962    0.0000 N   0  0
    9.2591   -5.7781    0.0000 C   0  0
    8.5494   -5.3677    0.0000 C   0  0
    9.9679   -7.0048    0.0000 C   0  0
    9.9679   -7.8220    0.0000 C   0  0
   10.6756   -8.2306    0.0000 C   0  0
   10.6756   -9.0478    0.0000 N   0  0
    0.7704   -5.8028    0.0000 C   0  0
    0.7692   -6.6224    0.0000 C   0  0
    1.4773   -7.0313    0.0000 C   0  0
    2.1869   -6.6219    0.0000 C   0  0
    2.1841   -5.7992    0.0000 C   0  0
    1.4755   -5.3940    0.0000 C   0  0
    2.8903   -5.3880    0.0000 O   0  0
    3.5995   -5.7939    0.0000 C   0  0
    4.3057   -5.3827    0.0000 C   0  0
    5.0149   -5.7886    0.0000 C   0  0
    5.7211   -5.3773    0.0000 C   0  0
    6.4303   -5.7832    0.0000 C   0  0
    7.1365   -5.3720    0.0000 C   0  0
    4.3407   -8.6477    0.0000 Cl  0  0
  1  2  1  0
  1  6  1  0
  2  3  1  0
  3  4  1  0
  4  5  1  0
  5  6  1  0
  4  7  1  0
  7  8  1  0
  8  9  1  0
  9 10  1  0
 11 12  2  0
 12 13  1  0
 13 14  2  0
 14 15  1  0
 15 16  2  0
 16 11  1  0
 15 17  1  0
 17 18  1  0
 18 19  1  0
 19 20  1  0
 20 21  1  0
 21 22  1  0
 22 23  1  0
 23  1  1  0
M  END