
  SciTegic06051313552D

 16 18  0  0  0  0            999 V2000
   22.5910   -2.3566    0.0000 C   0  0
   22.5899   -3.1761    0.0000 C   0  0
   23.2979   -3.5851    0.0000 C   0  0
   23.2961   -1.9477    0.0000 C   0  0
   24.0048   -2.3530    0.0000 C   0  0
   24.0096   -3.1716    0.0000 C   0  0
   24.7896   -3.4201    0.0000 N   0  0
   24.7818   -2.0956    0.0000 C   0  0
   25.2687   -2.7535    0.0000 C   0  0
   26.0449   -2.4938    0.0000 N   0  0
   26.0378   -1.6753    0.0000 C   0  0
   25.2572   -1.4292    0.0000 C   0  0
   25.0463   -4.1959    0.0000 C   0  0
   26.7102   -2.9684    0.0000 C   0  0
   24.3672   -1.3826    0.0000 C   0  0
   21.8832   -1.9482    0.0000 O   0  0
  1  2  2  0
  2  3  1  0
  3  6  2  0
  5  4  2  0
  4  1  1  0
  5  6  1  0
  6  7  1  0
  7  9  1  0
  8  5  1  0
  8  9  1  0
  9 10  1  0
 10 11  1  0
 11 12  1  0
 12  8  1  0
  7 13  1  0
 10 14  1  0
  8 15  1  0
  1 16  1  0
M  END