
  SciTegic12231509382D

 21 24  0  0  0  0            999 V2000
    2.0036    0.6391    0.0000 F   0  0
    2.8286    0.6391    0.0000 C   0  0
    3.2411    1.3535    0.0000 C   0  0
    4.0661    1.3535    0.0000 C   0  0
    4.4786    0.6391    0.0000 C   0  0
    4.0661   -0.0754    0.0000 C   0  0
    3.2411   -0.0754    0.0000 C   0  0
    5.3036    0.6391    0.0000 C   0  0
    5.7885    1.3065    0.0000 N   0  0
    6.5731    1.0516    0.0000 C   0  0
    7.3577    1.3065    0.0000 S   0  0
    7.8427    0.6391    0.0000 C   0  0
    7.3577   -0.0284    0.0000 C   0  0
    6.5731    0.2266    0.0000 N   0  0
    5.7885   -0.0284    0.0000 C   0  0
    5.5336   -0.8130    0.0000 C   0  0
    6.0856   -1.4261    0.0000 C   0  0
    5.8306   -2.2107    0.0000 C   0  0
    5.0237   -2.3823    0.0000 N   0  0
    4.4716   -1.7692    0.0000 C   0  0
    4.7266   -0.9845    0.0000 C   0  0
  1  2  1  0
  2  3  2  0
  3  4  1  0
  4  5  2  0
  5  6  1  0
  6  7  2  0
  2  7  1  0
  5  8  1  0
  8  9  1  0
  9 10  2  0
 10 11  1  0
 11 12  1  0
 12 13  1  0
 13 14  1  0
 10 14  1  0
 14 15  1  0
  8 15  2  0
 15 16  1  0
 16 17  2  0
 17 18  1  0
 18 19  2  0
 19 20  1  0
 20 21  2  0
 16 21  1  0
M  END