
          11280715012D 1   1.00000     0.00000     0

 33 36  0     1  0            999 V2000
    4.8042   -4.1542    0.0000 C   0  0  0  0  0  0           0  0  0
    5.5167   -3.7375    0.0000 N   0  0  3  0  0  0           0  0  0
    5.5042   -2.9125    0.0000 C   0  0  3  0  0  0           0  0  0
    4.0875   -3.7417    0.0000 C   0  0  0  0  0  0           0  0  0
    9.0875   -4.1167    0.0000 C   0  0  0  0  0  0           0  0  0
    8.3667   -3.7125    0.0000 C   0  0  2  0  0  0           0  0  0
    6.9417   -3.7250    0.0000 C   0  0  0  0  0  0           0  0  0
    7.6542   -4.1292    0.0000 N   0  0  0  0  0  0           0  0  0
    5.0875   -2.2042    0.0000 C   0  0  0  0  0  0           0  0  0
    5.9125   -2.1917    0.0000 C   0  0  0  0  0  0           0  0  0
    9.8000   -3.7000    0.0000 C   0  0  0  0  0  0           0  0  0
    6.2292   -4.1417    0.0000 C   0  0  0  0  0  0           0  0  0
    3.3792   -4.1667    0.0000 C   0  0  0  0  0  0           0  0  0
    2.6542   -3.7542    0.0000 C   0  0  0  0  0  0           0  0  0
    8.3625   -2.8875    0.0000 C   0  0  0  0  0  0           0  0  0
    4.8125   -4.9792    0.0000 O   0  0  0  0  0  0           0  0  0
    0.5167   -4.9917    0.0000 N   0  0  0  0  0  0           0  0  0
    6.9375   -2.9000    0.0000 O   0  0  0  0  0  0           0  0  0
    9.0667   -1.6417    0.0000 N   0  0  0  0  0  0           0  0  0
    9.7917   -2.8750    0.0000 O   0  0  0  0  0  0           0  0  0
    1.9500   -4.1750    0.0000 C   0  0  3  0  0  0           0  0  0
   10.5167   -4.1042    0.0000 O   0  0  0  0  0  0           0  0  0
    9.0750   -2.4667    0.0000 C   0  0  0  0  0  0           0  0  0
    4.0792   -2.9167    0.0000 C   0  0  0  0  0  0           0  0  0
    2.6500   -2.9375    0.0000 C   0  0  0  0  0  0           0  0  0
    3.3542   -2.5167    0.0000 C   0  0  0  0  0  0           0  0  0
    0.5250   -4.1667    0.0000 C   0  0  0  0  0  0           0  0  0
    1.2292   -5.4042    0.0000 C   0  0  0  0  0  0           0  0  0
    7.6417   -2.4792    0.0000 C   0  0  0  0  0  0           0  0  0
    8.3417   -1.2375    0.0000 C   0  0  0  0  0  0           0  0  0
    1.9500   -5.0000    0.0000 C   0  0  0  0  0  0           0  0  0
    1.2292   -3.7542    0.0000 C   0  0  0  0  0  0           0  0  0
    7.6292   -1.6625    0.0000 C   0  0  0  0  0  0           0  0  0
  2  1  1  0     0  0
  3  2  1  0     0  0
  4  1  1  0     0  0
  5  6  1  0     0  0
  6  8  1  0     0  0
  7 12  1  0     0  0
  8  7  1  0     0  0
  9  3  1  0     0  0
 10  3  1  0     0  0
 11  5  1  0     0  0
 12  2  1  0     0  0
 13  4  1  0     0  0
 14 13  2  0     0  0
  6 15  1  6     0  0
 16  1  2  0     0  0
 17 27  1  0     0  0
 18  7  2  0     0  0
 19 23  1  0     0  0
 20 11  2  0     0  0
 21 14  1  0     0  0
 22 11  1  0     0  0
 23 15  2  0     0  0
 24  4  2  0     0  0
 25 26  2  0     0  0
 26 24  1  0     0  0
 27 32  1  0     0  0
 28 31  1  0     0  0
 29 15  1  0     0  0
 30 33  1  0     0  0
 31 21  1  0     0  0
 32 21  1  0     0  0
 33 29  2  0     0  0
  9 10  1  0     0  0
 25 14  1  0     0  0
 28 17  1  0     0  0
 30 19  2  0     0  0
M  END