
  SciTegic09261414532D

 36 39  0  0  0  0            999 V2000
    7.2491   -9.4761    0.0000 C   0  0
    7.2491  -10.2933    0.0000 C   0  0
    6.5401   -9.0675    0.0000 O   0  0
    7.9541   -9.0675    0.0000 N   0  0
    6.5401  -10.7019    0.0000 N   0  0
    5.8310  -10.2933    0.0000 C   0  0
    5.8310   -9.4761    0.0000 N   0  0
    5.1260  -10.7019    0.0000 N   0  0
    8.6632   -9.4761    0.0000 C   0  0
    9.3723   -9.0675    0.0000 C   0  0
    9.3723   -8.2503    0.0000 O   0  0
   10.0772   -9.4761    0.0000 N   0  0
   10.7863   -9.0675    0.0000 C   0  0
   11.4954   -9.4761    0.0000 C   0  0
   11.4948  -10.2934    0.0000 C   0  0
   10.7863  -10.7019    0.0000 C   0  0
   10.0772  -10.2933    0.0000 C   0  0
   12.8714  -11.8963    0.0000 N   0  0
   12.1056  -11.6132    0.0000 N   0  0
   12.1342  -10.7986    0.0000 C   0  0
   12.9216  -10.5744    0.0000 C   0  0
   13.3765  -11.2570    0.0000 C   0  0
   14.1912  -11.2856    0.0000 C   0  0
   14.6290  -10.5937    0.0000 C   0  0
   15.4472  -10.6270    0.0000 C   0  0
   15.8282  -11.3479    0.0000 C   0  0
   15.3904  -12.0398    0.0000 C   0  0
   14.5763  -12.0071    0.0000 C   0  0
   15.8808   -9.9345    0.0000 Cl  0  0
   14.2479   -9.8727    0.0000 Cl  0  0
    7.9541  -10.7019    0.0000 C   0  0
    8.6632  -10.2933    0.0000 C   0  0
    9.3723  -10.7019    0.0000 C   0  0
    9.3723  -11.5191    0.0000 C   0  0
    8.6632  -11.9277    0.0000 C   0  0
    7.9541  -11.5191    0.0000 C   0  0
  1  2  1  0
  1  3  2  0
  1  4  1  0
  5  6  1  0
  6  7  2  0
  6  8  1  0
  2  5  1  0
  9 10  1  0
 10 11  2  0
 12 13  1  0
 13 14  1  0
 14 15  1  0
 15 16  1  0
 16 17  1  0
 12 17  1  0
 18 19  1  0
 19 20  1  0
 20 21  2  0
 21 22  1  0
 18 22  2  0
 23 24  1  0
 24 25  2  0
 25 26  1  0
 26 27  2  0
 27 28  1  0
 23 28  2  0
 25 29  1  0
 24 30  1  0
 22 23  1  0
 15 20  1  0
 10 12  1  0
  4  9  1  0
 31 32  1  0
 32 33  1  0
 33 34  1  0
 34 35  1  0
 35 36  1  0
 31 36  1  0
  2 31  1  0
M  END