
  CDK    6/4/10,11:41

 22 23  0  0  0  0  0  0  0  0999 V2000
    1.8486   -2.8901    0.0000 C   0  0  0  0  0  0  0  0  0  0  0  0
    2.5720   -3.3100    0.0000 C   0  0  0  0  0  0  0  0  0  0  0  0
    1.8611   -2.0670    0.0000 C   0  0  0  0  0  0  0  0  0  0  0  0
    2.5720   -1.6554    0.0000 C   0  0  0  0  0  0  0  0  0  0  0  0
    3.2871   -2.8984    0.0000 C   0  0  0  0  0  0  0  0  0  0  0  0
    3.2871   -2.0670    0.0000 C   0  0  0  0  0  0  0  0  0  0  0  0
    1.1461   -3.3100    0.0000 C   0  0  0  0  0  0  0  0  0  0  0  0
    1.1502   -4.1331    0.0000 O   0  0  0  0  0  0  0  0  0  0  0  0
   -2.4198   -4.5513    0.0000 C   0  0  0  0  0  0  0  0  0  0  0  0
   -0.2757   -4.1415    0.0000 C   0  0  0  0  0  0  0  0  0  0  0  0
    0.4352   -4.5531    0.0000 C   0  0  0  0  0  0  0  0  0  0  0  0
   -0.9908   -4.5531    0.0000 C   0  0  0  0  0  0  0  0  0  0  0  0
    1.1461   -1.6554    0.0000 C   0  0  0  0  0  0  0  0  0  0  0  0
    0.4310   -2.0670    0.0000 C   0  0  0  0  0  0  0  0  0  0  0  0
    0.4310   -2.8984    0.0000 C   0  0  0  0  0  0  0  0  0  0  0  0
   -3.1348   -4.1397    0.0000 C   0  0  0  0  0  0  0  0  0  0  0  0
   -2.4198   -5.3744    0.0000 C   0  0  0  0  0  0  0  0  0  0  0  0
   -3.1348   -4.9629    0.0000 C   0  0  0  0  0  0  0  0  0  0  0  0
   -1.7048   -4.1397    0.0000 N   0  0  0  0  0  0  0  0  0  0  0  0
    3.9867   -3.3082    0.0000 O   0  0  0  0  0  0  0  0  0  0  0  0
    3.9980   -1.6637    0.0000 O   0  0  0  0  0  0  0  0  0  0  0  0
   -0.2799   -3.3184    0.0000 O   0  0  0  0  0  0  0  0  0  0  0  0
  5  2  1  0  0  0  0 
  6  4  1  0  0  0  0 
  7  1  2  0  0  0  0 
  8  7  1  0  0  0  0 
 10 11  1  0  0  0  0 
 11  8  1  0  0  0  0 
 12 10  1  0  0  0  0 
 13  3  2  0  0  0  0 
 14 15  2  0  0  0  0 
 15  7  1  0  0  0  0 
 16  9  1  0  0  0  0 
 17  9  1  0  0  0  0 
 18  9  1  0  0  0  0 
 14 13  1  0  0  0  0 
  6  5  1  0  0  0  0 
  2  1  1  0  0  0  0 
  3  1  1  0  0  0  0 
  4  3  1  0  0  0  0 
  5 20  1  1  0  0  0 
 19 12  1  0  0  0  0 
  9 19  1  0  0  0  0 
  6 21  1  1  0  0  0 
 22 10  1  0  0  0  0 
M  END