
  SciTegic04191613082D

176185  0  0  1  0            999 V2000
    1.8994    5.2771    0.0000 C   0  0
    3.3746    5.5325    0.0000 C   0  0
    3.9048    6.9494    0.0000 C   0  0
    2.9447    8.0987    0.0000 C   0  0
    3.4579    9.5090    0.0000 C   0  0
    4.9478    9.7728    0.0000 C   0  0  2  0  0  0
    4.8132   11.2668    0.0000 N   0  0
    4.9400   12.7614    0.0000 C   0  0
    3.7577   12.9667    0.0000 O   0  0
    5.3245   14.2113    0.0000 C   0  0  2  0  0  0
    5.9550   15.5724    0.0000 N   0  0
    5.0821   16.8032    0.0000 C   0  0
    3.5881   16.6686    0.0000 C   0  0
    2.9577   15.3075    0.0000 C   0  0
    3.8213   14.0810    0.0000 C   0  0
    6.8121   16.8033    0.0000 C   0  0
    5.8909   17.5723    0.0000 O   0  0
    7.8701   17.8667    0.0000 C   0  0  2  0  0  0
    9.0966   18.7302    0.0000 N   0  0
   10.4544   19.3677    0.0000 C   0  0
   10.0411   20.4942    0.0000 O   0  0
   11.9023   19.7596    0.0000 C   0  0
   13.3962   19.8942    0.0000 N   0  0
   13.8037   21.0229    0.0000 C   0  0
   14.8909   19.7673    0.0000 C   0  0
   15.0962   20.9496    0.0000 O   0  0
   16.3407   19.3828    0.0000 C   0  0  1  0  0  0
   17.7018   18.7524    0.0000 N   0  0
   18.7260   19.8607    0.0000 C   0  0
   17.9954   21.1707    0.0000 C   0  0
   16.5237   20.8807    0.0000 C   0  0
   18.9328   17.8952    0.0000 C   0  0
   19.9962   16.8373    0.0000 C   0  0
   18.6186   15.8114    0.0000 C   0  0
   18.6225   14.3114    0.0000 C   0  0
   17.1649   16.1464    0.0000 C   0  0
   15.6967   16.4539    0.0000 N   0  0
   14.1968   16.4595    0.0000 C   0  0
   12.7263   16.1631    0.0000 C   0  0  2  0  0  0
   11.3457   15.5768    0.0000 N   0  0
   10.1113   14.7245    0.0000 C   0  0
    9.0738   13.6412    0.0000 C   0  0  1  0  0  0
    8.2755   12.3713    0.0000 N   0  0
    7.7493   10.9666    0.0000 C   0  0
    6.5887   11.2718    0.0000 O   0  0
    7.5166    9.4848    0.0000 C   0  0  1  0  0  0
    7.5869    7.9864    0.0000 N   0  0
    7.9574    6.5329    0.0000 C   0  0
    6.8305    6.1204    0.0000 O   0  0
    8.6129    5.1837    0.0000 C   0  0  1  0  0  0
    9.5266    3.9941    0.0000 N   0  0
   10.6610    3.0128    0.0000 C   0  0
   11.9698    2.2799    0.0000 C   0  0  2  0  0  0
   11.3654    0.8933    0.0000 C   0  0
   10.0221    0.2240    0.0000 C   0  0
    9.9291   -1.2739    0.0000 C   0  0
    8.5857   -1.9432    0.0000 N   0  0
    8.4927   -3.4411    0.0000 C   0  0
    7.4186   -3.9762    0.0000 N   0  0
    9.4929   -4.1040    0.0000 N   0  0
   13.3993    1.8254    0.0000 N   0  0
   14.8910    1.6681    0.0000 C   0  0
   14.8865    0.4681    0.0000 O   0  0
   16.3839    1.8142    0.0000 C   0  0  1  0  0  0
   17.8168    2.2578    0.0000 N   0  0
   19.1311    2.9808    0.0000 C   0  0
   19.8129    1.9934    0.0000 O   0  0
   20.2729    3.9536    0.0000 C   0  0  1  0  0  0
   21.1955    5.1363    0.0000 N   0  0
   21.8611    6.4805    0.0000 C   0  0
   21.5123    8.3666    0.0000 C   0  0  1  0  0  0
   20.8819    7.0056    0.0000 N   0  0
   20.0247    5.7746    0.0000 C   0  0
   20.9460    5.0056    0.0000 O   0  0
   18.9668    4.7112    0.0000 C   0  0  1  0  0  0
   19.7405    3.7940    0.0000 C   0  0
   17.7403    3.8477    0.0000 N   0  0
   16.3825    3.2102    0.0000 C   0  0
   14.9346    2.8183    0.0000 C   0  0  1  0  0  0
   15.8518    3.5920    0.0000 C   0  0
   13.4406    2.6837    0.0000 N   0  0
   11.9460    2.8106    0.0000 C   0  0
   11.7407    1.6283    0.0000 O   0  0
   10.4961    3.1951    0.0000 C   0  0  2  0  0  0
   10.0886    2.0664    0.0000 C   0  0
    9.1350    3.8255    0.0000 N   0  0
    7.9041    4.6827    0.0000 C   0  0
    6.8407    5.7406    0.0000 C   0  0  2  0  0  0
    5.6861    4.7628    0.0000 C   0  0
    5.9524    3.2858    0.0000 C   0  0
    4.8071    2.3159    0.0000 C   0  0
    3.3942    2.8220    0.0000 N   0  0
    2.2489    1.8521    0.0000 C   0  0
    1.1191    2.2567    0.0000 N   0  0
    2.4630    0.6713    0.0000 N   0  0
    5.9772    6.9671    0.0000 N   0  0
    5.3397    8.3249    0.0000 C   0  0
    4.2132    7.9116    0.0000 O   0  0
    7.1351    3.7614    0.0000 O   0  0
   16.7958    2.0837    0.0000 O   0  0
   21.8968    9.8165    0.0000 C   0  0
   22.0237   11.3112    0.0000 N   0  0
   21.8891   12.8051    0.0000 C   0  0
   21.4971   14.2530    0.0000 C   0  0
   19.9235   13.5648    0.0000 C   0  0
   20.8597   15.6108    0.0000 C   0  0
   23.0703   13.0165    0.0000 O   0  0
   23.0497    6.3149    0.0000 O   0  0
   21.3632    2.9053    0.0000 C   0  0
   21.0042    1.4480    0.0000 C   0  0
   22.0840    0.4068    0.0000 C   0  0
   21.7222   -1.0490    0.0000 C   0  0
   20.2806   -1.4635    0.0000 C   0  0
   19.2008   -0.4224    0.0000 C   0  0
   19.5626    1.0334    0.0000 C   0  0
   16.6799    0.3309    0.0000 C   0  0
   15.5528   -0.6601    0.0000 C   0  0
   15.8435   -2.1292    0.0000 C   0  0
   14.6982   -3.1178    0.0000 C   0  0
   13.2816   -2.6338    0.0000 C   0  0
   12.9922   -1.1647    0.0000 C   0  0
   11.5755   -0.6807    0.0000 C   0  0
   10.4482   -1.6658    0.0000 C   0  0
   10.7376   -3.1349    0.0000 C   0  0
   12.1543   -3.6189    0.0000 C   0  0
   14.1195   -0.1796    0.0000 C   0  0
    9.9718    2.0304    0.0000 O   0  0
    8.1357    3.7484    0.0000 C   0  0
    8.6875    2.3527    0.0000 C   0  0
    7.7555    1.1764    0.0000 C   0  0
    8.3074   -0.2193    0.0000 N   0  0
    7.3753   -1.3957    0.0000 C   0  0
    6.1882   -1.2202    0.0000 N   0  0
    7.8166   -2.5116    0.0000 N   0  0
    6.0064    9.5700    0.0000 C   0  0
    5.3296   10.9095    0.0000 C   0  0
    3.8311   10.9941    0.0000 C   0  0
    3.1543   12.3337    0.0000 N   0  0
    1.6559   12.4183    0.0000 C   0  0
    0.9986   11.4143    0.0000 N   0  0
    1.1147   13.4893    0.0000 N   0  0
    7.8830   14.5739    0.0000 C   0  0
    8.0927   16.0600    0.0000 C   0  0
    6.9112   16.9854    0.0000 C   0  0
    6.6000   18.4536    0.0000 N   0  0
    5.1732   18.9191    0.0000 C   0  0
    4.9243   20.0931    0.0000 N   0  0
    4.2807   18.1170    0.0000 N   0  0
    9.3331   15.6380    0.0000 O   0  0
   12.7972   17.6740    0.0000 C   0  0
   13.8636   18.2244    0.0000 O   0  0
   11.5345   18.4853    0.0000 N   0  0
   11.6048   19.9845    0.0000 C   0  0  2  0  0  0
   10.6971   21.1797    0.0000 C   0  0
   11.1611   22.2863    0.0000 O   0  0
    9.5067   21.0286    0.0000 O   0  0
   12.9379   20.6740    0.0000 C   0  0
   13.0082   22.1732    0.0000 C   0  0
   14.3412   22.8628    0.0000 C   0  0
   14.4115   24.3619    0.0000 C   0  0
   15.4774   24.9133    0.0000 N   0  0
   17.7952   17.1676    0.0000 O   0  0
   19.7017   18.8165    0.0000 O   0  0
    6.8923   19.0213    0.0000 C   0  0
    7.3984   20.4342    0.0000 C   0  0
    6.6230   21.3500    0.0000 O   0  0
    8.5792   20.6483    0.0000 O   0  0
    1.4567    7.8323    0.0000 C   0  0
    0.9405    6.4271    0.0000 C   0  0
   -0.5346    6.1717    0.0000 C   0  0
   -1.0508    4.7665    0.0000 C   0  0
   -0.0919    3.6166    0.0000 C   0  0
    1.3832    3.8719    0.0000 C   0  0
   21.3872    7.3745    0.0000 H   0  0
   15.7802   20.2110    0.0000 H   0  0
    4.5591   13.5678    0.0000 H   0  0
  1  2  1  0
  2  3  2  0
  3  4  1  0
  5  4  1  0
  6  5  1  6
  7  6  1  0
  8  7  1  0
  8  9  2  0
 10  8  1  0
 10 11  1  0
 12 11  1  0
 13 12  1  0
 14 13  1  0
 15 14  1  0
 10 15  1  0
 11 16  1  0
 16 17  2  0
 16 18  1  0
 19 18  1  0
 20 19  1  0
 20 21  2  0
 20 22  1  0
 22 23  1  0
 23 24  1  0
 23 25  1  0
 25 26  2  0
 27 25  1  0
 28 27  1  0
 29 28  1  0
 30 29  1  0
 31 30  1  0
 27 31  1  0
 28 32  1  0
 32 33  1  0
 33 34  2  0
 34 35  1  0
 35 36  1  0
 37 36  1  0
 38 37  1  0
 39 38  1  0
 40 39  1  0
 41 40  1  0
 41 42  1  0
 43 42  1  0
 44 43  1  0
 44 45  2  0
 44 46  1  0
 47 46  1  0
 47 48  1  0
 48 49  2  0
 50 48  1  0
 50 51  1  0
 51 52  1  0
 53 52  1  0
 53 54  1  1
 54 55  1  0
 55 56  1  0
 57 56  1  0
 58 57  1  0
 59 58  2  0
 60 58  1  0
 53 61  1  0
 61 62  1  0
 62 63  2  0
 64 62  1  0
 64 65  1  0
 65 66  1  0
 66 67  2  0
 68 66  1  0
 68 69  1  0
 69 70  1  0
 71 70  1  0
 71 72  1  0
 72 73  1  0
 73 74  2  0
 73 75  1  0
 75 76  1  1
 75 77  1  0
 78 77  1  0
 79 78  1  0
 79 80  1  1
 81 79  1  0
 82 81  1  0
 82 83  2  0
 84 82  1  0
 84 85  1  6
 86 84  1  0
 87 86  1  0
 88 87  1  0
 88 89  1  6
 89 90  1  0
 90 91  1  0
 92 91  1  0
 93 92  1  0
 94 93  2  0
 95 93  1  0
 88 96  1  0
 96 97  1  0
 97 98  2  0
  6 97  1  0
 87 99  2  0
 78100  2  0
 71101  1  0
102101  1  0
102103  1  0
104103  1  0
105104  1  0
 35105  2  0
104106  2  0
106 33  1  0
103107  2  0
 70108  2  0
 68109  1  1
109110  1  0
110111  2  0
111112  1  0
112113  2  0
113114  1  0
114115  2  0
115110  1  0
 64116  1  1
116117  1  0
118117  1  0
119118  2  0
120119  1  0
120121  1  0
121122  2  0
122123  1  0
123124  2  0
124125  1  0
125120  2  0
126121  1  0
117126  2  0
 52127  2  0
 50128  1  1
128129  1  0
129130  1  0
131130  1  0
132131  1  0
133132  1  0
134132  2  0
 46135  1  1
135136  1  0
136137  1  0
138137  1  0
139138  1  0
140139  1  0
141139  2  0
 42142  1  1
142143  1  0
143144  1  0
145144  1  0
146145  1  0
147146  2  0
148146  1  0
 41149  2  0
 39150  1  6
150151  2  0
150152  1  0
153152  1  6
153154  1  0
154155  2  0
154156  1  0
153157  1  0
157158  1  0
158159  1  0
159160  1  0
160161  1  0
 36162  2  0
 32163  2  0
 18164  1  1
164165  1  0
165166  2  0
167165  1  0
  4168  2  0
168169  1  0
  1169  1  0
169170  2  0
170171  1  0
171172  2  0
172173  1  0
173  1  2  0
 71174  1  6
 27175  1  1
 10176  1  6
M  END