
  SciTegic05171617272D

 20 21  0  0  1  0            999 V2000
    7.8984    7.5443    0.0000 O   0  0
    7.5241    6.4042    0.0000 C   0  0
    6.0553    6.0958    0.0000 C   0  0  1  0  0  0
    5.2548    6.9898    0.0000 O   0  0
    5.5870    4.6698    0.0000 C   0  0
    6.5859    3.5496    0.0000 C   0  0
    6.2102    2.4100    0.0000 O   0  0
    4.1182    4.3614    0.0000 C   0  0
    3.6500    2.9355    0.0000 N   0  0
    2.1812    2.6271    0.0000 C   0  0
    1.7138    1.2033    0.0000 C   0  0
    2.5889    0.0182    0.0000 C   0  0
    1.7138   -1.2033    0.0000 N   0  0
    0.2917   -0.7475    0.0000 C   0  0
    0.2917    0.7475    0.0000 C   0  0
   -1.0028    1.5132    0.0000 N   0  0
   -2.3155    0.7475    0.0000 C   0  0
   -2.3155   -0.7475    0.0000 N   0  0
   -1.0028   -1.5132    0.0000 C   0  0
   -0.9991   -2.7132    0.0000 O   0  0
  1  2  1  0
  2  3  1  0
  3  4  1  6
  3  5  1  0
  5  6  1  0
  6  7  1  0
  5  8  1  0
  8  9  1  0
  9 10  1  0
 10 11  1  0
 11 12  2  0
 12 13  1  0
 13 14  1  0
 14 15  2  0
 11 15  1  0
 15 16  1  0
 16 17  2  0
 17 18  1  0
 18 19  1  0
 14 19  1  0
 19 20  2  0
M  END