
  SciTegic01161211222D

 28 31  0  0  0  0            999 V2000
   -0.0018    1.0411    0.0000 C   0  0
    0.7090    0.6282    0.0000 C   0  0
    1.4198    1.0373    0.0000 C   0  0
    1.4210    1.8590    0.0000 C   0  0
    0.7056    2.2699    0.0000 C   0  0
   -0.0023    1.8585    0.0000 C   0  0
   -2.8471   -0.6226    0.0000 C   0  0
   -2.8483   -1.4505    0.0000 C   0  0
   -2.1330   -1.8635    0.0000 C   0  0
   -2.1348   -0.2096    0.0000 C   0  0
   -1.4191   -0.6190    0.0000 C   0  0
   -1.4183   -1.4463    0.0000 C   0  0
   -0.7026   -1.8575    0.0000 N   0  0
    0.0128   -1.4425    0.0000 C   0  0
    0.0081   -0.6120    0.0000 N   0  0
   -0.7082   -0.2046    0.0000 C   0  0
   -0.7153    0.6238    0.0000 N   0  0
    2.1358    2.2719    0.0000 O   0  0
    2.8508    1.8595    0.0000 C   0  0
    2.8466    1.0355    0.0000 C   0  0
    3.5607    0.6231    0.0000 C   0  0
    4.2764    1.0362    0.0000 C   0  0
    4.2735    1.8659    0.0000 C   0  0
    3.5587    2.2745    0.0000 C   0  0
   -3.5620   -0.2101    0.0000 O   0  0
   -4.2764    0.2020    0.0000 C   0  0
   -3.5635   -1.8626    0.0000 O   0  0
   -4.2743   -2.2745    0.0000 C   0  0
 13 14  2  0
  3  4  2  0
 14 15  1  0
  7  8  2  0
 15 16  2  0
 16 11  1  0
 16 17  1  0
 17  1  1  0
  8  9  1  0
  4 18  1  0
  9 12  2  0
 18 19  1  0
  4  5  1  0
 19 20  2  0
 11 10  2  0
 20 21  1  0
 10  7  1  0
 21 22  2  0
  2  3  1  0
 22 23  1  0
  5  6  2  0
 23 24  2  0
 24 19  1  0
  7 25  1  0
  8 27  1  0
 11 12  1  0
  6  1  1  0
 25 26  1  0
 12 13  1  0
  1  2  2  0
 27 28  1  0
M  END