
  SciTegic02271514512D

 27 30  0  0  0  0            999 V2000
    6.9083   -2.5975    0.0000 N   0  0
    5.0872   -3.7643    0.0000 C   0  0
    5.8819   -3.5729    0.0000 N   0  0
    6.1136   -2.7889    0.0000 C   0  0
    5.5504   -2.1963    0.0000 C   0  0
    4.7557   -2.3877    0.0000 C   0  0
    4.5241   -3.1717    0.0000 N   0  0
    5.7820   -1.4123    0.0000 F   0  0
    4.1072   -5.6389    0.0000 C   0  0
    4.0852   -4.8217    0.0000 C   0  0
    3.3665   -4.4321    0.0000 C   0  0
    2.6698   -4.8597    0.0000 C   0  0
    2.6918   -5.6769    0.0000 C   0  0
    3.4105   -6.0665    0.0000 N   0  0
    4.8911   -5.8705    0.0000 N   0  0
    4.8556   -4.5482    0.0000 C   0  0
    5.3537   -5.1964    0.0000 C   0  0
    7.4712   -3.1898    0.0000 C   0  0  1  0  0  0
    7.2364   -3.9741    0.0000 C   0  0
    7.7955   -4.5653    0.0000 C   0  0
    8.5913   -4.3779    0.0000 C   0  0
    8.8249   -3.5939    0.0000 C   0  0
    8.2628   -2.9971    0.0000 C   0  0  2  0  0  0
    1.9514   -4.4703    0.0000 Cl  0  0
    8.4951   -2.2137    0.0000 C   0  0
    9.2898   -2.0231    0.0000 N   0  0
    7.9328   -1.6207    0.0000 O   0  0
  2  3  1  0
  3  4  2  0
  4  5  1  0
  5  6  2  0
  6  7  1  0
  2  7  2  0
  5  8  1  0
  9 10  1  0
 10 11  2  0
 11 12  1  0
 12 13  2  0
 13 14  1  0
  9 14  2  0
 16 17  2  0
 15 17  1  0
  9 15  1  0
 10 16  1  0
  2 16  1  0
  1  4  1  0
 18  1  1  6
 18 19  1  0
 18 23  1  0
 19 20  1  0
 20 21  1  0
 21 22  1  0
 22 23  1  0
 12 24  1  0
 23 25  1  1
 25 26  1  0
 25 27  2  0
M  END