
  SciTegic12231509382D

 28 32  0  0  0  0            999 V2000
   -3.3176    7.5460    0.0000 S   0  0
    7.9228    1.0592    0.0000 O   0  0
    7.9139    3.4658    0.0000 O   0  0
   -1.2907    2.9981    0.0000 N   0  0
   -2.6111    0.7486    0.0000 N   0  0
   -1.2964   -1.4973    0.0000 N   0  0
   -1.3626    6.1078    0.0000 N   0  0
    0.0000    0.7486    0.0000 C   0  0
   -1.2964    1.4973    0.0000 C   0  0
    2.5929    0.7486    0.0000 C   0  0
    0.0000   -0.7486    0.0000 C   0  0
    3.8926    1.4990    0.0000 C   0  0
    1.2964    1.4973    0.0000 C   0  0
    6.4990    1.5097    0.0000 C   0  0
    2.5929   -0.7486    0.0000 C   0  0
    1.2964   -1.4973    0.0000 C   0  0
    6.4935    3.0047    0.0000 C   0  0
    5.2074    0.7393    0.0000 C   0  0
    3.8864    2.9952    0.0000 C   0  0
    5.1963    3.7657    0.0000 C   0  0
   -2.6111   -0.7486    0.0000 C   0  0
   -2.5870    3.7544    0.0000 C   0  0
   -2.5812    5.2552    0.0000 C   0  0
    8.7935    2.2474    0.0000 C   0  0
   -0.2489    3.5938    0.0000 C   0  0
   -3.7896    6.1222    0.0000 C   0  0
   -1.8176    7.5371    0.0000 C   0  0
   -1.1065    8.5038    0.0000 C   0  0
  1 26  1  0
  1 27  1  0
  2 14  1  0
  2 24  1  0
  3 17  1  0
  3 24  1  0
  4  9  1  0
  4 22  1  0
  4 25  1  0
  5  9  2  0
  5 21  1  0
  6 11  1  0
  6 21  2  0
  7 23  1  0
  7 27  2  0
  8  9  1  0
  8 11  1  0
  8 13  2  0
 10 12  1  0
 10 13  1  0
 10 15  2  0
 11 16  2  0
 12 18  1  0
 12 19  2  0
 14 17  1  0
 14 18  2  0
 15 16  1  0
 17 20  2  0
 19 20  1  0
 22 23  1  0
 23 26  2  0
 27 28  1  0
M  END