
  SciTegic11201309402D

 65 67  0  0  1  0            999 V2000
    0.6667    1.6250    0.0000 N   0  0
    2.0917    0.8083    0.0000 C   0  0
    2.4167   -2.2792    0.0000 N   0  0
    2.5417    0.1208    0.0000 N   0  0
   -1.6458    1.0083    0.0000 N   0  0
   -0.1583    1.6708    0.0000 C   0  0
    2.7042   -1.5042    0.0000 C   0  0
   -2.1708    0.3583    0.0000 C   0  0
    1.8917   -2.9250    0.0000 C   0  0  1  0  0  0
    1.4417    1.3250    0.0000 C   0  0  2  0  0  0
    2.7542   -0.6792    0.0000 C   0  0  1  0  0  0
   -2.5083   -1.2375    0.0000 N   0  0
   -0.9458    1.4583    0.0000 C   0  0  1  0  0  0
   -2.2958   -2.0292    0.0000 C   0  0
   -2.4583   -0.4125    0.0000 C   0  0  2  0  0  0
    3.5792   -0.5917    0.0000 C   0  0
    2.4417   -3.5375    0.0000 C   0  0
    3.5167   -7.2750    0.0000 C   0  0
   -1.8458   -2.7292    0.0000 C   0  0
    0.4042   -3.5792    0.0000 S   0  0
   -0.3958   -3.5917    0.0000 S   0  0
    5.9917   -4.4250    0.0000 C   0  0
    4.2542   -1.0875    0.0000 C   0  0
   -1.1958   -3.2417    0.0000 C   0  0
    3.9292   -7.9917    0.0000 N   0  0
    2.7042    1.3625    0.0000 O   0  0
   -0.3083    2.2833    0.0000 O   0  0
   -2.8833    0.7750    0.0000 O   0  0
    3.5167   -1.6792    0.0000 O   0  0
    1.2042   -3.3750    0.0000 C   0  0
   -1.2958    2.2083    0.0000 C   0  0
   -3.0458   -2.3667    0.0000 O   0  0
   -3.2708   -0.2375    0.0000 C   0  0
    2.1917   -4.3167    0.0000 O   0  0
    6.3917   -3.7042    0.0000 O   0  0
    4.0667   -1.7125    0.0000 O   0  0
    3.9292   -6.5625    0.0000 N   0  0
    3.2542   -3.3667    0.0000 N   0  0
    5.1667   -4.4250    0.0000 N   0  0
    6.4042   -5.1375    0.0000 C   0  0
    2.6917   -7.2750    0.0000 N   0  0
    1.8542    2.0458    0.0000 C   0  0
    5.0792   -1.0000    0.0000 N   0  0
    7.2167   -5.1375    0.0000 N   0  0
   -0.8083    2.8833    0.0000 C   0  0
   -3.8583    0.3500    0.0000 C   0  0
   -0.7333   -3.8667    0.0000 C   0  0
   -1.9708   -3.1500    0.0000 C   0  0
    3.8042   -3.9792    0.0000 C   0  0
    4.6167   -3.8042    0.0000 C   0  0
    4.7542   -6.5625    0.0000 C   0  0
    5.9917   -5.8500    0.0000 C   0  0
    1.4417    2.7708    0.0000 C   0  0
    2.6917    2.0458    0.0000 C   0  0
   -1.1458    3.6333    0.0000 C   0  0
    0.0167    2.7958    0.0000 C   0  0
    5.1667   -5.8500    0.0000 C   0  0
   -3.6458    1.1500    0.0000 C   0  0
   -4.6583    0.1375    0.0000 C   0  0
   -2.3833   -3.8667    0.0000 C   0  0
   -1.1458   -4.5875    0.0000 C   0  0
    0.5042    3.4625    0.0000 C   0  0
   -0.6583    4.3042    0.0000 C   0  0
   -1.9708   -4.5875    0.0000 C   0  0
    0.1667    4.2167    0.0000 C   0  0
  2 10  1  0
  3  7  1  0
  4  2  1  0
  5 13  1  0
  6  1  1  0
  7 11  1  0
  8  5  1  0
  9  3  1  0
 10  1  1  0
 11  4  1  0
 12 15  1  0
 13  6  1  0
 14 12  1  0
 15  8  1  0
 11 16  1  6
  9 17  1  1
 18 37  2  0
 19 14  1  0
 20 30  1  0
 21 20  1  0
 22 39  1  0
 23 16  1  0
 24 19  1  0
 25 18  1  0
 26  2  2  0
 27  6  2  0
 28  8  2  0
 29  7  2  0
  9 30  1  0
 13 31  1  6
 32 14  2  0
 15 33  1  6
 34 17  2  0
 35 22  2  0
 36 23  2  0
 37 51  1  0
 38 17  1  0
 39 50  1  0
 40 22  1  0
 41 18  1  0
 10 42  1  1
 43 23  1  0
 44 40  1  0
 45 31  1  0
 46 33  1  0
 47 24  1  0
 48 24  1  0
 49 38  1  0
 50 49  1  0
 51 57  1  0
 52 40  1  0
 53 42  1  0
 54 42  1  0
 55 45  2  0
 56 45  1  0
 57 52  1  0
 58 46  1  0
 59 46  1  0
 60 48  1  0
 61 47  1  0
 62 56  2  0
 63 55  1  0
 64 60  1  0
 65 62  1  0
 63 65  2  0
 24 21  1  0
 61 64  1  0
M  END