
  SciTegic10191216002D

 28 31  0  0  0  0            999 V2000
   10.8270    2.2724    0.0000 C   0  0
   10.8258    1.4446    0.0000 C   0  0
   11.5413    1.0313    0.0000 C   0  0
   12.2581    1.4451    0.0000 C   0  0
   12.2552    2.2761    0.0000 C   0  0
   11.5395    2.6855    0.0000 C   0  0
   11.5439    0.2067    0.0000 C   0  0
   11.5378   -1.4435    0.0000 C   0  0
   12.2546   -1.0320    0.0000 N   0  0
   12.2585   -0.2038    0.0000 C   0  0
   10.8247   -1.0265    0.0000 C   0  0
   10.8279   -0.2066    0.0000 C   0  0
   10.1206    0.2042    0.0000 C   0  0
    9.4096   -0.2035    0.0000 N   0  0
    9.4104   -1.0266    0.0000 C   0  0
   10.1183   -1.4339    0.0000 C   0  0
    7.9804   -1.0284    0.0000 C   0  0
    7.2660   -1.4422    0.0000 C   0  0
    6.5505   -1.0302    0.0000 C   0  0
    5.8388   -1.4440    0.0000 N   0  0
    5.1245   -1.0355    0.0000 C   0  0
    4.4150   -1.4458    0.0000 C   0  0
    4.4132   -2.2691    0.0000 C   0  0
    5.1271   -2.6809    0.0000 C   0  0
    5.8429   -2.2689    0.0000 C   0  0
   12.9681   -1.4475    0.0000 C   0  0
   12.9737    1.0333    0.0000 F   0  0
    8.6959   -1.4404    0.0000 O   0  0
  7 12  1  0
 13 14  2  0
  1  2  2  0
 14 15  1  0
  3  4  2  0
 15 16  2  0
 16 11  1  0
 15 28  1  0
  4  5  1  0
 28 17  1  0
  7 10  1  0
 17 18  1  0
 11  8  1  0
 18 19  1  0
  8  9  1  0
 19 20  1  0
 20 21  1  0
  9 10  1  0
  7  3  1  0
  2  3  1  0
  5  6  2  0
 11 12  2  0
 20 25  1  0
 21 22  1  0
 22 23  1  0
 23 24  1  0
 24 25  1  0
  6  1  1  0
  9 26  1  0
 12 13  1  0
  4 27  1  0
M  END