
  SciTegic10041313242D

 26 27  0  0  0  0            999 V2000
   11.5819    1.7750    0.0000 N   0  0
   11.5807    0.9477    0.0000 C   0  0
   12.2956    0.5348    0.0000 N   0  0
   13.0120    0.9481    0.0000 C   0  0
   13.0091    1.7787    0.0000 C   0  0
   12.2938    2.1878    0.0000 C   0  0
   13.7221    2.1939    0.0000 C   0  0
   14.4381    1.7841    0.0000 N   0  3
   14.5265    0.9645    0.0000 C   0  0
   15.3342    0.7960    0.0000 C   0  0
   15.7440    1.5121    0.0000 S   0  0
   15.1896    2.1230    0.0000 C   0  0
   13.9153    0.4105    0.0000 C   0  0
   15.7093    0.0612    0.0000 C   0  0
   16.5332    0.0185    0.0000 C   0  0
   16.9082   -0.7164    0.0000 O   0  0
   12.2913    3.0128    0.0000 N   0  0
   10.8659    0.5357    0.0000 C   0  0
   17.7292   -0.7125    0.0000 P   0  0
   18.5542   -0.7125    0.0000 O   0  0
   18.9667    0.0020    0.0000 P   0  0
   19.3750    0.7208    0.0000 O   0  0
   19.6826   -0.4080    0.0000 O   0  0
   18.2499    0.4104    0.0000 O   0  0
   17.7272    0.1125    0.0000 O   0  0
   17.7271   -1.5375    0.0000 C   0  0
  6  1  1  0
  9 13  1  0
  1  2  2  0
 10 14  1  0
  5  7  1  0
 14 15  1  0
  3  4  2  0
 15 16  1  0
  7  8  1  0
  6 17  1  0
  8  9  1  0
  2 18  1  0
 16 19  1  0
  4  5  1  0
 19 20  1  0
  2  3  1  0
 20 21  1  0
  5  6  2  0
 21 22  1  0
  9 10  2  0
 21 23  2  0
 10 11  1  0
 21 24  1  0
 11 12  1  0
 19 25  2  0
 12  8  2  0
 19 26  1  0
M  CHG  1   8   1
M  END