
  Mrv0541 04051115152D          

 56 61  0  0  0  0            999 V2000
   -1.8271    4.5286    0.0000 O   0  0  0  0  0  0  0  0  0  0  0  0
   -2.5416    4.1161    0.0000 N   0  3  0  0  0  0  0  0  0  0  0  0
   -3.2561    4.5286    0.0000 O   0  5  0  0  0  0  0  0  0  0  0  0
   -2.5416    3.2911    0.0000 C   0  0  0  0  0  0  0  0  0  0  0  0
   -3.2561    2.8786    0.0000 C   0  0  0  0  0  0  0  0  0  0  0  0
   -3.9705    3.2911    0.0000 N   0  0  0  0  0  0  0  0  0  0  0  0
   -4.6850    2.8786    0.0000 C   0  0  1  0  0  0  0  0  0  0  0  0
   -4.6850    2.0536    0.0000 C   0  0  0  0  0  0  0  0  0  0  0  0
   -5.3995    1.6411    0.0000 S   0  0  0  0  0  0  0  0  0  0  0  0
   -5.3995    0.8161    0.0000 C   0  0  0  0  0  0  0  0  0  0  0  0
   -6.1140    0.4036    0.0000 C   0  0  0  0  0  0  0  0  0  0  0  0
   -6.1140   -0.4214    0.0000 C   0  0  0  0  0  0  0  0  0  0  0  0
   -5.3995   -0.8339    0.0000 C   0  0  0  0  0  0  0  0  0  0  0  0
   -4.6850   -0.4214    0.0000 C   0  0  0  0  0  0  0  0  0  0  0  0
   -4.6850    0.4036    0.0000 C   0  0  0  0  0  0  0  0  0  0  0  0
   -5.3995    3.2911    0.0000 C   0  0  0  0  0  0  0  0  0  0  0  0
   -5.3995    4.1161    0.0000 C   0  0  0  0  0  0  0  0  0  0  0  0
   -6.1140    4.5286    0.0000 N   0  0  0  0  0  0  0  0  0  0  0  0
   -6.8284    4.1161    0.0000 C   0  0  0  0  0  0  0  0  0  0  0  0
   -6.1140    5.3536    0.0000 C   0  0  0  0  0  0  0  0  0  0  0  0
   -3.2561    2.0536    0.0000 C   0  0  0  0  0  0  0  0  0  0  0  0
   -2.5416    1.6411    0.0000 C   0  0  0  0  0  0  0  0  0  0  0  0
   -1.8271    2.8786    0.0000 C   0  0  0  0  0  0  0  0  0  0  0  0
   -1.8271    2.0536    0.0000 C   0  0  0  0  0  0  0  0  0  0  0  0
   -1.1127    1.6411    0.0000 S   0  0  0  0  0  0  0  0  0  0  0  0
   -0.7002    2.3556    0.0000 O   0  0  0  0  0  0  0  0  0  0  0  0
   -1.5252    0.9267    0.0000 O   0  0  0  0  0  0  0  0  0  0  0  0
   -0.3982    1.2286    0.0000 N   0  0  0  0  0  0  0  0  0  0  0  0
   -0.3982    0.4036    0.0000 C   0  0  0  0  0  0  0  0  0  0  0  0
   -1.1127   -0.0089    0.0000 O   0  0  0  0  0  0  0  0  0  0  0  0
    0.3163   -0.0089    0.0000 C   0  0  0  0  0  0  0  0  0  0  0  0
    0.3163   -0.8339    0.0000 C   0  0  0  0  0  0  0  0  0  0  0  0
    1.0308   -1.2464    0.0000 C   0  0  0  0  0  0  0  0  0  0  0  0
    1.0308    0.4036    0.0000 C   0  0  0  0  0  0  0  0  0  0  0  0
    1.7452   -0.0089    0.0000 C   0  0  0  0  0  0  0  0  0  0  0  0
    1.7452   -0.8339    0.0000 C   0  0  0  0  0  0  0  0  0  0  0  0
    2.4597   -1.2464    0.0000 N   0  0  0  0  0  0  0  0  0  0  0  0
    3.1742   -0.8339    0.0000 C   0  0  0  0  0  0  0  0  0  0  0  0
    3.8886   -1.2464    0.0000 C   0  0  0  0  0  0  0  0  0  0  0  0
    2.4597   -2.0714    0.0000 C   0  0  0  0  0  0  0  0  0  0  0  0
    3.1742   -2.4839    0.0000 C   0  0  0  0  0  0  0  0  0  0  0  0
    3.8886   -2.0714    0.0000 N   0  0  0  0  0  0  0  0  0  0  0  0
    4.6031   -2.4839    0.0000 C   0  0  0  0  0  0  0  0  0  0  0  0
    4.6031   -3.3089    0.0000 C   0  0  0  0  0  0  0  0  0  0  0  0
    3.8886   -3.7214    0.0000 C   0  0  0  0  0  0  0  0  0  0  0  0
    3.8886   -4.5464    0.0000 C   0  0  0  0  0  0  0  0  0  0  0  0
    4.6031   -4.9589    0.0000 C   0  0  0  0  0  0  0  0  0  0  0  0
    5.3176   -4.5464    0.0000 C   0  0  0  0  0  0  0  0  0  0  0  0
    5.3176   -3.7214    0.0000 C   0  0  0  0  0  0  0  0  0  0  0  0
    6.0321   -3.3089    0.0000 C   0  0  0  0  0  0  0  0  0  0  0  0
    6.7465   -3.7214    0.0000 C   0  0  0  0  0  0  0  0  0  0  0  0
    7.4610   -3.3089    0.0000 C   0  0  0  0  0  0  0  0  0  0  0  0
    6.0321   -2.4839    0.0000 C   0  0  0  0  0  0  0  0  0  0  0  0
    6.7465   -2.0714    0.0000 C   0  0  0  0  0  0  0  0  0  0  0  0
    7.4610   -2.4839    0.0000 C   0  0  0  0  0  0  0  0  0  0  0  0
    8.1755   -2.0714    0.0000 Cl  0  0  0  0  0  0  0  0  0  0  0  0
  2  1  2  0  0  0  0
  2  3  1  0  0  0  0
  4  2  1  0  0  0  0
  4 23  2  0  0  0  0
  5  4  1  0  0  0  0
  5  6  1  0  0  0  0
 21  5  2  0  0  0  0
  7  6  1  1  0  0  0
  7 16  1  0  0  0  0
  7  8  1  0  0  0  0
  8  9  1  0  0  0  0
 10  9  1  0  0  0  0
 10 15  1  0  0  0  0
 10 11  2  0  0  0  0
 12 11  1  0  0  0  0
 13 12  2  0  0  0  0
 14 13  1  0  0  0  0
 15 14  2  0  0  0  0
 16 17  1  0  0  0  0
 17 18  1  0  0  0  0
 19 18  1  0  0  0  0
 20 18  1  0  0  0  0
 22 21  1  0  0  0  0
 24 22  2  0  0  0  0
 24 23  1  0  0  0  0
 24 25  1  0  0  0  0
 27 25  2  0  0  0  0
 28 25  1  0  0  0  0
 26 25  2  0  0  0  0
 29 28  1  0  0  0  0
 31 29  1  0  0  0  0
 29 30  2  0  0  0  0
 31 34  1  0  0  0  0
 32 31  2  0  0  0  0
 33 32  1  0  0  0  0
 36 33  2  0  0  0  0
 34 35  2  0  0  0  0
 36 35  1  0  0  0  0
 36 37  1  0  0  0  0
 40 37  1  0  0  0  0
 38 37  1  0  0  0  0
 39 38  1  0  0  0  0
 39 42  1  0  0  0  0
 40 41  1  0  0  0  0
 41 42  1  0  0  0  0
 43 42  1  0  0  0  0
 44 43  1  0  0  0  0
 44 49  2  0  0  0  0
 45 44  1  0  0  0  0
 46 45  2  0  0  0  0
 46 47  1  0  0  0  0
 48 47  2  0  0  0  0
 49 48  1  0  0  0  0
 50 49  1  0  0  0  0
 50 53  1  0  0  0  0
 51 50  2  0  0  0  0
 52 51  1  0  0  0  0
 55 52  2  0  0  0  0
 53 54  2  0  0  0  0
 55 54  1  0  0  0  0
 55 56  1  0  0  0  0
M  CHG  2   2   1   3  -1
M  END