
  SciTegic11201309402D

 43 47  0  0  1  0            999 V2000
   -2.3430   -2.2902    0.0000 C   0  0
   -3.7737   -2.2649    0.0000 N   0  0
   -3.0503   -1.8625    0.0000 C   0  0  1  0  0  0
   -3.0364   -1.0398    0.0000 C   0  0
   -3.7437   -0.6162    0.0000 C   0  0
   -4.4649   -1.0110    0.0000 C   0  0
   -5.1722   -0.5873    0.0000 C   0  0
   -5.1583    0.2352    0.0000 C   0  0
   -5.8656    0.6630    0.0000 O   0  0
   -4.4350    0.6377    0.0000 C   0  0
   -3.7277    0.2100    0.0000 C   0  0
   -3.0049    0.6109    0.0000 C   0  0
   -4.4812   -1.8377    0.0000 C   0  0
   -1.6204   -1.8889    0.0000 N   0  0
   -2.3583   -3.1151    0.0000 O   0  0
   -0.9201   -2.3182    0.0000 C   0  0  1  0  0  0
   -0.1997   -1.9245    0.0000 C   0  0
   -1.6098   -1.0646    0.0000 C   0  0
   -0.8831   -0.6694    0.0000 C   0  0
   -0.1826   -1.0946    0.0000 C   0  0
    0.5378   -0.7005    0.0000 C   0  0
    0.5548    0.1226    0.0000 C   0  0
   -0.1545    0.5502    0.0000 C   0  0
   -0.8679    0.1496    0.0000 C   0  0
   -0.9378   -3.1431    0.0000 C   0  0
   -1.6575   -3.5381    0.0000 O   0  0
   -0.2317   -3.5730    0.0000 N   0  0
    0.4920   -3.1737    0.0000 C   0  0
    1.1981   -3.6036    0.0000 C   0  0
    1.2666   -4.4213    0.0000 N   0  0
    1.9595   -3.2774    0.0000 N   0  0
    2.4998   -3.9032    0.0000 C   0  0
    2.0672   -4.6068    0.0000 C   0  0
    2.4630   -5.3296    0.0000 C   0  0
    3.2869   -5.3499    0.0000 C   0  0
    3.7135   -4.6416    0.0000 C   0  0
    3.3195   -3.9216    0.0000 C   0  0
    2.1454   -2.4737    0.0000 C   0  0
    2.9351   -2.2349    0.0000 C   0  0
    3.5393   -2.7978    0.0000 O   0  0
    3.1217   -1.4290    0.0000 O   0  0
    4.3284   -2.5529    0.0000 C   0  0
    4.9334   -3.1164    0.0000 C   0  0
 20 21  1  0
 10 11  2  0
 21 22  2  0
  5 11  1  0
 22 23  1  0
 23 24  2  0
 24 19  1  0
 11 12  1  0
 16 25  1  1
  6 13  1  0
 25 26  2  0
  3  2  1  1
 25 27  1  0
  1  3  1  0
 27 28  1  0
  1 14  1  0
 28 29  1  0
 29 30  2  0
  3  4  1  0
  1 15  2  0
 30 33  1  0
 32 31  1  0
 31 29  1  0
 16 14  1  0
  4  5  1  0
 32 33  2  0
  5  6  2  0
 33 34  1  0
  6  7  1  0
 34 35  2  0
 14 18  1  0
 35 36  1  0
 16 17  1  0
 36 37  2  0
 37 32  1  0
 17 20  1  0
 31 38  1  0
 19 18  1  0
 38 39  1  0
  7  8  2  0
  8  9  1  0
 39 40  1  0
 39 41  2  0
 19 20  2  0
 40 42  1  0
  8 10  1  0
 42 43  1  0
M  END