
          11280714442D 1   1.00000     0.00000     0

 26 27  0     0  0            999 V2000
    6.0792   -0.3917    0.0000 C   0  0  0  0  0  0           0  0  0
    5.3875   -0.8417    0.0000 C   0  0  0  0  0  0           0  0  0
    6.8125   -0.7750    0.0000 O   0  0  0  0  0  0           0  0  0
    9.6667   -0.6417    0.0000 N   0  0  0  0  0  0           0  0  0
    6.0417    0.4250    0.0000 O   0  0  0  0  0  0           0  0  0
   10.3625   -0.2042    0.0000 C   0  0  3  0  0  0           0  0  0
    4.6542   -0.4542    0.0000 C   0  0  0  0  0  0           0  0  0
    5.4292   -1.6625    0.0000 C   0  0  0  0  0  0           0  0  0
    3.3042   -2.1750    0.0000 O   0  0  0  0  0  0           0  0  0
    8.2417   -0.7125    0.0000 C   0  0  3  0  0  0           0  0  0
    4.0000   -1.7292    0.0000 C   0  0  0  0  0  0           0  0  0
    7.5042   -0.3292    0.0000 C   0  0  0  0  0  0           0  0  0
    8.9375   -0.2667    0.0000 C   0  0  0  0  0  0           0  0  0
    2.5667   -1.7917    0.0000 C   0  0  0  0  0  0           0  0  0
    3.9625   -0.9042    0.0000 C   0  0  0  0  0  0           0  0  0
    4.7375   -2.1042    0.0000 C   0  0  0  0  0  0           0  0  0
    1.8750   -2.2375    0.0000 C   0  0  0  0  0  0           0  0  0
    8.2792   -1.5375    0.0000 O   0  0  0  0  0  0           0  0  0
   10.9167    0.4083    0.0000 C   0  0  0  0  0  0           0  0  0
   11.0917   -0.5792    0.0000 C   0  0  0  0  0  0           0  0  0
   10.3292    0.6208    0.0000 C   0  0  0  0  0  0           0  0  0
    1.1625   -1.8250    0.0000 C   0  0  0  0  0  0           0  0  0
    1.8792   -3.0542    0.0000 C   0  0  0  0  0  0           0  0  0
    1.1667   -3.4667    0.0000 C   0  0  0  0  0  0           0  0  0
    0.4500   -2.2375    0.0000 C   0  0  0  0  0  0           0  0  0
    0.4500   -3.0625    0.0000 C   0  0  0  0  0  0           0  0  0
  2  1  1  0     0  0
  3  1  1  0     0  0
  4 13  1  0     0  0
  5  1  2  0     0  0
  6  4  1  0     0  0
  7  2  2  0     0  0
  8  2  1  0     0  0
  9 11  1  0     0  0
 10 12  1  0     0  0
 11 16  1  0     0  0
 12  3  1  0     0  0
 13 10  1  0     0  0
 14  9  1  0     0  0
 15  7  1  0     0  0
 16  8  2  0     0  0
 17 14  1  0     0  0
 18 10  1  0     0  0
 19  6  1  0     0  0
 20  6  1  0     0  0
 21  6  1  0     0  0
 22 17  2  0     0  0
 23 17  1  0     0  0
 24 23  2  0     0  0
 25 22  1  0     0  0
 26 24  1  0     0  0
 11 15  2  0     0  0
 26 25  2  0     0  0
M  END