
          11280715382D 1   1.00000     0.00000     0

 23 26  0     0  0            999 V2000
    7.8792   -1.2292    0.0000 C   0  0  3  0  0  0           0  0  0
    7.6625   -0.4292    0.0000 O   0  0  0  0  0  0           0  0  0
    7.1875   -1.6792    0.0000 O   0  0  0  0  0  0           0  0  0
    6.5417   -1.1625    0.0000 C   0  0  3  0  0  0           0  0  0
    5.2375   -2.7542    0.0000 N   0  0  3  0  0  0           0  0  0
    8.0917   -2.0250    0.0000 C   0  0  0  0  0  0           0  0  0
    8.6750   -1.0125    0.0000 C   0  0  0  0  0  0           0  0  0
    6.8375   -0.3917    0.0000 C   0  0  0  0  0  0           0  0  0
    5.7167   -1.2750    0.0000 C   0  0  0  0  0  0           0  0  0
    6.0792   -1.7125    0.0000 C   0  0  0  0  0  0           0  0  0
    5.6792   -2.2500    0.0000 C   0  0  0  0  0  0           0  0  0
    6.0625   -2.6417    0.0000 C   0  0  0  0  0  0           0  0  0
    4.5167   -3.1625    0.0000 C   0  0  0  0  0  0           0  0  0
    9.2542   -1.5875    0.0000 C   0  0  0  0  0  0           0  0  0
    8.8750   -0.2167    0.0000 C   0  0  0  0  0  0           0  0  0
    7.5042   -2.6000    0.0000 C   0  0  0  0  0  0           0  0  0
    8.8750   -2.2292    0.0000 C   0  0  0  0  0  0           0  0  0
    9.6667    0.0083    0.0000 C   0  0  0  0  0  0           0  0  0
    7.7167   -3.3917    0.0000 C   0  0  0  0  0  0           0  0  0
    9.0875   -3.0250    0.0000 C   0  0  0  0  0  0           0  0  0
   10.0500   -1.3667    0.0000 C   0  0  0  0  0  0           0  0  0
   10.2542   -0.5667    0.0000 C   0  0  0  0  0  0           0  0  0
    8.5042   -3.6042    0.0000 C   0  0  0  0  0  0           0  0  0
  2  1  1  0     0  0
  3  1  1  0     0  0
  4  3  1  0     0  0
  5 12  1  0     0  0
  6  1  1  0     0  0
  7  1  1  0     0  0
  8  2  1  0     0  0
  9  4  1  0     0  0
 10  4  1  0     0  0
 11  9  1  0     0  0
 12 10  1  0     0  0
 13  5  1  0     0  0
 14  7  2  0     0  0
 15  7  1  0     0  0
 16  6  2  0     0  0
 17  6  1  0     0  0
 18 15  2  0     0  0
 19 16  1  0     0  0
 20 17  2  0     0  0
 21 14  1  0     0  0
 22 18  1  0     0  0
 23 20  1  0     0  0
  4  8  1  0     0  0
 22 21  2  0     0  0
 23 19  2  0     0  0
 11  5  1  0     0  0
M  END