
          11280715182D 1   1.00000     0.00000     0

 24 25  0     0  0            999 V2000
    3.6625   -0.7417    0.0000 C   0  0  0  0  0  0           0  0  0
    0.8042   -0.7500    0.0000 C   0  0  0  0  0  0           0  0  0
    3.6542   -1.5667    0.0000 C   0  0  0  0  0  0           0  0  0
    4.3667   -0.3292    0.0000 C   0  0  0  0  0  0           0  0  0
    7.2292   -1.9750    0.0000 C   0  0  0  0  0  0           0  0  0
    2.9417   -0.3292    0.0000 C   0  0  0  0  0  0           0  0  0
    0.8042   -1.5792    0.0000 C   0  0  0  0  0  0           0  0  0
    1.5167   -0.3375    0.0000 C   0  0  0  0  0  0           0  0  0
    4.3667   -1.9792    0.0000 C   0  0  0  0  0  0           0  0  0
    5.0792   -0.7375    0.0000 C   0  0  0  0  0  0           0  0  0
    2.2292   -0.7500    0.0000 C   0  0  0  0  0  0           0  0  0
    5.0875   -1.5667    0.0000 C   0  0  0  0  0  0           0  0  0
    7.9417   -1.5625    0.0000 O   0  0  0  0  0  0           0  0  0
    1.5167   -1.9917    0.0000 C   0  0  0  0  0  0           0  0  0
    0.0917   -0.3417    0.0000 C   0  0  3  0  0  0           0  0  0
    6.5167   -1.5667    0.0000 C   0  0  0  0  0  0           0  0  0
    2.2292   -1.5792    0.0000 C   0  0  0  0  0  0           0  0  0
    5.8042   -1.9792    0.0000 C   0  0  0  0  0  0           0  0  0
    7.2292   -2.8000    0.0000 O   0  0  0  0  0  0           0  0  0
    0.0917   -1.9917    0.0000 O   0  0  0  0  0  0           0  0  0
    2.9417   -1.9792    0.0000 C   0  0  0  0  0  0           0  0  0
    4.3625    0.4958    0.0000 C   0  0  0  0  0  0           0  0  0
    0.0917    0.4833    0.0000 C   0  0  0  0  0  0           0  0  0
   -0.6250   -0.7542    0.0000 C   0  0  0  0  0  0           0  0  0
  2  8  1  0     0  0
  3  1  2  0     0  0
  4  1  1  0     0  0
  5 16  1  0     0  0
  6  1  1  0     0  0
  7 14  1  0     0  0
  8 11  2  0     0  0
  9  3  1  0     0  0
 10  4  2  0     0  0
 11  6  1  0     0  0
 12 10  1  0     0  0
 13  5  2  0     0  0
 14 17  2  0     0  0
 15  2  1  0     0  0
 16 18  1  0     0  0
 17 11  1  0     0  0
 18 12  1  0     0  0
 19  5  1  0     0  0
 20  7  1  0     0  0
 21  3  1  0     0  0
 22  4  1  0     0  0
 23 15  1  0     0  0
 24 15  1  0     0  0
 12  9  2  0     0  0
  7  2  2  0     0  0
M  END