
          11280715322D 1   1.00000     0.00000     0

 12 13  0     0  0            999 V2000
    6.1667   -2.5042    0.0000 C   0  0  0  0  0  0           0  0  0
    5.4542   -2.9167    0.0000 O   0  0  0  0  0  0           0  0  0
    6.1625   -1.6750    0.0000 C   0  0  0  0  0  0           0  0  0
    5.4417   -1.2667    0.0000 C   0  0  0  0  0  0           0  0  0
    4.7375   -2.5042    0.0000 C   0  0  0  0  0  0           0  0  0
    4.7375   -1.6792    0.0000 C   0  0  0  0  0  0           0  0  0
    6.8792   -2.9125    0.0000 O   0  0  0  0  0  0           0  0  0
    6.8750   -1.2542    0.0000 O   0  0  0  0  0  0           0  0  0
    4.0167   -2.9250    0.0000 C   0  0  0  0  0  0           0  0  0
    4.0167   -1.2667    0.0000 C   0  0  0  0  0  0           0  0  0
    3.3042   -1.6875    0.0000 C   0  0  0  0  0  0           0  0  0
    3.3042   -2.5125    0.0000 C   0  0  0  0  0  0           0  0  0
  2  1  1  0     0  0
  3  1  1  0     0  0
  4  3  2  0     0  0
  5  2  1  0     0  0
  6  4  1  0     0  0
  7  1  2  0     0  0
  8  3  1  0     0  0
  9  5  2  0     0  0
 10  6  2  0     0  0
 11 10  1  0     0  0
 12  9  1  0     0  0
  5  6  1  0     0  0
 12 11  2  0     0  0
M  END