
          11280715332D 1   1.00000     0.00000     0

 20 21  0     0  0            999 V2000
   -0.6708   -1.4542    0.0000 S   0  0  3  0  0  0           0  0  0
    3.0417   -2.1542    0.0000 N   0  0  3  0  0  0           0  0  0
    2.6250   -1.4417    0.0000 C   0  0  0  0  0  0           0  0  0
    3.8667   -2.2292    0.0000 C   0  0  3  0  0  0           0  0  0
    4.4125   -1.6125    0.0000 C   0  0  0  0  0  0           0  0  0
    0.1542   -1.4542    0.0000 C   0  0  0  0  0  0           0  0  0
    1.8000   -1.4417    0.0000 C   0  0  0  0  0  0           0  0  0
   -0.6708   -0.6292    0.0000 O   0  0  0  0  0  0           0  0  0
   -0.6708   -2.2792    0.0000 O   0  0  0  0  0  0           0  0  0
    3.0292   -0.7250    0.0000 O   0  0  0  0  0  0           0  0  0
   -1.4958   -1.4500    0.0000 N   0  0  0  0  0  0           0  0  0
    4.1500   -0.8292    0.0000 O   0  0  0  0  0  0           0  0  0
    0.5667   -2.1667    0.0000 C   0  0  0  0  0  0           0  0  0
    0.5542   -0.7417    0.0000 C   0  0  0  0  0  0           0  0  0
    1.3792   -0.7292    0.0000 C   0  0  0  0  0  0           0  0  0
    1.3917   -2.1625    0.0000 C   0  0  0  0  0  0           0  0  0
    2.7125   -2.9042    0.0000 C   0  0  0  0  0  0           0  0  0
    5.2167   -1.7792    0.0000 O   0  0  0  0  0  0           0  0  0
    4.0417   -3.0375    0.0000 C   0  0  0  0  0  0           0  0  0
    3.3292   -3.4542    0.0000 C   0  0  0  0  0  0           0  0  0
  2  3  1  0     0  0
  3  7  1  0     0  0
  4  2  1  0     0  0
  5  4  1  0     0  0
  6  1  1  0     0  0
  7 15  1  0     0  0
  8  1  2  0     0  0
  9  1  2  0     0  0
 10  3  2  0     0  0
 11  1  1  0     0  0
 12  5  2  0     0  0
 13  6  2  0     0  0
 14  6  1  0     0  0
 15 14  2  0     0  0
 16 13  1  0     0  0
 17  2  1  0     0  0
 18  5  1  0     0  0
 19  4  1  0     0  0
 20 17  1  0     0  0
  7 16  2  0     0  0
 19 20  1  0     0  0
M  END