
  SciTegic01161211212D

109113  0  0  0  0            999 V2000
    2.5215  -13.6112    0.0000 C   0  0  1  0  0  0
    2.5238  -14.4467    0.0000 C   0  0
    3.2348  -14.8754    0.0000 N   0  0
    3.9690  -14.4563    0.0000 C   0  0
    5.4209  -14.4767    0.0000 N   0  0
    4.6934  -14.8847    0.0000 C   0  0
    3.9864  -11.1972    0.0000 C   0  0
    2.5671  -11.1822    0.0000 S   0  0
    3.2783  -10.7790    0.0000 S   0  0
    1.8256  -13.2318    0.0000 N   0  0
    9.0030  -14.8850    0.0000 C   0  0
    9.7150  -14.4766    0.0000 N   0  0
   10.4323  -14.8877    0.0000 C   0  0
   11.1442  -14.4750    0.0000 C   0  0
   11.1433  -13.6513    0.0000 N   0  0
   11.8553  -13.2388    0.0000 C   0  0
   11.1406  -11.1760    0.0000 C   0  0
   10.4276  -10.7651    0.0000 N   0  0
    9.7156  -11.1776    0.0000 C   0  0  2  0  0  0
    8.9985  -10.7666    0.0000 C   0  0
    8.2864  -11.1793    0.0000 C   0  0
    6.1443  -10.7697    0.0000 C   0  0
    5.4323  -11.1824    0.0000 N   0  0
    4.7193  -10.7671    0.0000 C   0  0  2  0  0  0
   11.8568  -10.7634    0.0000 C   0  0  1  0  0  0
   12.5707  -11.9981    0.0000 N   0  0
   11.8544  -12.4108    0.0000 C   0  0
    4.7136   -9.9435    0.0000 C   0  0
    5.4275   -9.5310    0.0000 O   0  0
    6.1434   -9.9461    0.0000 O   0  0
    7.5748  -10.7677    0.0000 N   0  0
    6.8600  -11.1758    0.0000 C   0  0  1  0  0  0
    7.0287  -11.9801    0.0000 C   0  0
    7.8434  -12.0719    0.0000 C   0  0
    8.1819  -11.3235    0.0000 C   0  0
    8.6919  -11.8907    0.0000 O   0  0
    8.9975   -9.9429    0.0000 O   0  0
   11.1415  -11.9998    0.0000 O   0  0
   12.0667   -9.9701    0.0000 C   0  0
   12.8638   -9.7542    0.0000 C   0  0
   13.0779   -8.9568    0.0000 C   0  0
   13.4466  -10.3359    0.0000 C   0  0
   11.0294  -12.4040    0.0000 O   0  0
   11.8571  -14.8860    0.0000 O   0  0
    9.0040  -15.7130    0.0000 O   0  0
    9.7054  -10.3534    0.0000 C   0  0
   10.4170   -9.9370    0.0000 C   0  0
   11.1314  -10.3450    0.0000 C   0  0
   11.8422   -9.9255    0.0000 C   0  0
   11.8369   -9.1004    0.0000 C   0  0
   11.1159   -8.6936    0.0000 C   0  0
   10.4054   -9.1125    0.0000 C   0  0
    1.8052  -14.8521    0.0000 O   0  0
    3.2298  -13.1891    0.0000 C   0  0  2  0  0  0
    3.9505  -13.5907    0.0000 O   0  0
    3.2215  -12.3656    0.0000 C   0  0
    1.1227  -13.6656    0.0000 C   0  0
    0.3973  -13.2719    0.0000 C   0  0  2  0  0  0
    1.1453  -14.4887    0.0000 O   0  0
    0.3906  -12.4471    0.0000 C   0  0
   -0.3077  -13.6993    0.0000 N   0  0
   -0.2931  -14.5228    0.0000 C   0  0
   -0.9981  -14.9461    0.0000 C   0  0  2  0  0  0
    0.4307  -14.9188    0.0000 O   0  0
   -1.7177  -14.5459    0.0000 C   0  0
   -1.7366  -13.7224    0.0000 C   0  0
   -1.0258  -13.3002    0.0000 C   0  0
   -1.0442  -12.4779    0.0000 C   0  0
   -1.7646  -12.0764    0.0000 C   0  0
   -2.4731  -12.5066    0.0000 C   0  0
   -2.4536  -13.3310    0.0000 C   0  0
   -1.6906  -16.1945    0.0000 C   0  0
   -1.6759  -17.0222    0.0000 C   0  0  2  0  0  0
   -2.4143  -15.7985    0.0000 O   0  0
   -0.9563  -17.4182    0.0000 C   0  0
   -0.9417  -18.2417    0.0000 C   0  0
   -0.2178  -18.6419    0.0000 C   0  0
    0.5178  -19.8678    0.0000 C   0  0
    1.2228  -19.4445    0.0000 N   0  0
    5.4318  -10.3553    0.0000 H   0  0
    6.8600  -10.3521    0.0000 H   0  0
    1.8090  -14.0231    0.0000 H   0  0
    0.3973  -14.0955    0.0000 H   0  0
   -3.1034  -17.0429    0.0000 C   0  0
   -3.8253  -17.4738    0.0000 C   0  0
   -3.1156  -16.2024    0.0000 O   0  0
    0.1684  -11.6281    0.0000 C   0  0
   -0.4261  -12.6599    0.0000 C   0  0
   10.4147  -13.2320    0.0000 C   0  0
   13.3826  -12.2159    0.0000 C   0  0
    4.6838  -15.7253    0.0000 O   0  0
    6.1464  -14.8932    0.0000 C   0  0  2  0  0  0
    6.1487  -15.7338    0.0000 C   0  0
    6.8777  -16.1522    0.0000 C   0  0
    6.8760  -16.9917    0.0000 C   0  0
    7.6043  -17.4101    0.0000 C   0  0
    8.3322  -16.9878    0.0000 C   0  0
    8.3274  -16.1428    0.0000 C   0  0
    7.5986  -15.7282    0.0000 C   0  0
    9.0619  -17.4053    0.0000 N   0  0
    9.0652  -18.2460    0.0000 C   0  0
    9.7949  -18.6634    0.0000 N   0  0
    8.3389  -18.6691    0.0000 N   0  0
   12.5477   -8.6827    0.0000 O   0  0
    3.9983   -9.5380    0.0000 N   0  0
   -0.9826  -15.7709    0.0000 N   0  0
   -2.3837  -17.4461    0.0000 N   0  0
   -0.2032  -19.4668    0.0000 N   0  0
    0.5324  -20.6912    0.0000 N   0  0
 24 28  1  0
 28 29  2  0
 22 30  2  0
 31 32  1  0
 32 33  1  0
 33 34  1  0
 34 35  1  0
 35 31  1  0
 21 36  2  0
 20 37  2  0
 17 38  2  0
 25 39  1  6
 39 40  1  0
 40 41  1  0
 40 42  1  0
 27 43  2  0
 14 44  2  0
 11 45  2  0
 19 46  1  1
 46 47  1  0
 47 48  2  0
 48 49  1  0
 49 50  2  0
 50 51  1  0
 51 52  2  0
 52 47  1  0
  2 53  2  0
  1 54  1  0
 54 55  1  1
 54 56  1  0
 10 57  1  0
 57 58  1  0
 57 59  2  0
 58 60  1  0
 60  8  1  0
 58 61  1  0
 61 62  1  0
 62 63  1  0
 62 64  2  0
 63 65  1  1
 65 66  1  0
 66 67  2  0
 67 68  1  0
 68 69  2  0
 69 70  1  0
 70 71  2  0
 71 66  1  0
 72 73  1  0
 72 74  2  0
 73 75  1  6
 75 76  1  0
 76 77  1  0
 78 79  2  0
 24 80  1  6
 32 81  1  6
  1 82  1  6
 58 83  1  6
  1  2  1  0
 84 85  1  0
  2  3  1  0
 84 86  2  0
  3  4  1  0
 60 87  1  0
  6  4  1  0
 60 88  1  0
  7 24  1  0
 15 89  1  0
  7  9  1  0
 26 90  1  0
  6  5  1  0
  8  9  1  0
  6 91  2  0
 10  1  1  0
  5 92  1  0
 11 12  1  0
 92 93  1  6
 92 11  1  0
 12 13  1  0
 93 94  1  0
 13 14  1  0
 94 95  2  0
 14 15  1  0
 95 96  1  0
 15 16  1  0
 96 97  2  0
 16 27  1  0
 97 98  1  0
 17 18  1  0
 98 99  2  0
 99 94  1  0
 18 19  1  0
 97100  1  0
 19 20  1  0
100101  1  0
 20 21  1  0
101102  1  0
 21 31  1  0
101103  2  0
 32 22  1  0
 22 23  1  0
 23 24  1  0
 17 25  1  0
 26 27  1  0
 25 26  1  0
 63106  1  0
106 72  1  0
 73107  1  0
107 84  1  0
 28105  1  0
 77108  1  0
108 78  1  0
 50104  1  0
 78109  1  0
M  END