
          11280715362D 1   1.00000     0.00000     0

 23 26  0     0  0            999 V2000
    2.3042   -2.6167    0.0000 C   0  0  0  0  0  0           0  0  0
    2.3167   -3.9542    0.0000 C   0  0  3  0  0  0           0  0  0
    5.0000   -5.2417    0.0000 N   0  0  3  0  0  0           0  0  0
    1.5250   -2.8792    0.0000 C   0  0  0  0  0  0           0  0  0
    1.5292   -3.7042    0.0000 C   0  0  0  0  0  0           0  0  0
    2.8042   -3.2792    0.0000 C   0  0  0  0  0  0           0  0  0
    5.8042   -5.4042    0.0000 C   0  0  0  0  0  0           0  0  0
    3.3875   -4.9042    0.0000 N   0  0  3  0  0  0           0  0  0
    2.5792   -4.7375    0.0000 C   0  0  0  0  0  0           0  0  0
    6.0625   -6.1917    0.0000 N   0  0  0  0  0  0           0  0  0
    2.5542   -1.8292    0.0000 O   0  0  0  0  0  0           0  0  0
    4.4500   -5.8542    0.0000 C   0  0  0  0  0  0           0  0  0
    4.7417   -4.4542    0.0000 C   0  0  0  0  0  0           0  0  0
    3.6417   -5.6875    0.0000 C   0  0  0  0  0  0           0  0  0
    3.9292   -4.2875    0.0000 C   0  0  0  0  0  0           0  0  0
    0.8042   -2.4667    0.0000 C   0  0  0  0  0  0           0  0  0
    0.8042   -4.1167    0.0000 C   0  0  0  0  0  0           0  0  0
    6.3500   -4.7917    0.0000 C   0  0  0  0  0  0           0  0  0
    6.8667   -6.3625    0.0000 C   0  0  0  0  0  0           0  0  0
    0.0917   -3.7042    0.0000 C   0  0  0  0  0  0           0  0  0
    0.0917   -2.8792    0.0000 C   0  0  0  0  0  0           0  0  0
    7.1542   -4.9542    0.0000 C   0  0  0  0  0  0           0  0  0
    7.4167   -5.7417    0.0000 C   0  0  0  0  0  0           0  0  0
  2  6  1  0     0  0
  3 13  1  0     0  0
  4  1  1  0     0  0
  5  4  1  0     0  0
  6  1  1  0     0  0
  7  3  1  0     0  0
  8  9  1  0     0  0
  9  2  1  0     0  0
 10  7  2  0     0  0
 11  1  2  0     0  0
 12 14  1  0     0  0
 13 15  1  0     0  0
 14  8  1  0     0  0
 15  8  1  0     0  0
 16  4  2  0     0  0
 17  5  2  0     0  0
 18  7  1  0     0  0
 19 10  1  0     0  0
 20 21  2  0     0  0
 21 16  1  0     0  0
 22 18  2  0     0  0
 23 22  1  0     0  0
  2  5  1  0     0  0
 20 17  1  0     0  0
  3 12  1  0     0  0
 23 19  2  0     0  0
M  END