
  CDK    9/16/09,10:1

 36 39  0  0  0  0  0  0  0  0999 V2000
   11.9170   -0.3485    0.0000 N   0  0  0  0  0  0  0  0  0  0  0  0
   12.6280   -0.7671    0.0000 C   0  0  0  0  0  0  0  0  0  0  0  0
   13.3459   -0.3607    0.0000 C   0  0  0  0  0  0  0  0  0  0  0  0
   14.0568   -0.7792    0.0000 O   0  0  0  0  0  0  0  0  0  0  0  0
   13.3529    0.4643    0.0000 O   0  0  0  0  0  0  0  0  0  0  0  0
   10.2710    0.4660    0.0000 C   0  0  0  0  0  0  0  0  0  0  0  0
   12.1230    0.4480    0.0000 C   0  0  0  0  0  0  0  0  0  0  0  0
   11.1301   -0.6970    0.0000 C   0  0  0  0  0  0  0  0  0  0  0  0
   10.4295   -0.3299    0.0000 C   0  0  0  0  0  0  0  0  0  0  0  0
   11.1029   -1.5215    0.0000 O   0  0  0  0  0  0  0  0  0  0  0  0
    9.7144   -0.7411    0.0000 N   0  0  0  0  0  0  0  0  0  0  0  0
    9.0005   -0.3276    0.0000 C   0  0  0  0  0  0  0  0  0  0  0  0
    8.2854   -0.7391    0.0000 C   0  0  0  0  0  0  0  0  0  0  0  0
    9.0016    0.4974    0.0000 O   0  0  0  0  0  0  0  0  0  0  0  0
    7.5702   -0.3257    0.0000 C   0  0  0  0  0  0  0  0  0  0  0  0
    8.2843   -1.5641    0.0000 N   0  0  0  0  0  0  0  0  0  0  0  0
    7.1539    0.3838    0.0000 C   0  0  0  0  0  0  0  0  0  0  0  0
    7.5642    1.0987    0.0000 C   0  0  0  0  0  0  0  0  0  0  0  0
    7.1482    1.8102    0.0000 C   0  0  0  0  0  0  0  0  0  0  0  0
    6.3224    1.8058    0.0000 C   0  0  0  0  0  0  0  0  0  0  0  0
    5.9143    1.0839    0.0000 C   0  0  0  0  0  0  0  0  0  0  0  0
    6.3326    0.3753    0.0000 C   0  0  0  0  0  0  0  0  0  0  0  0
    5.9273   -0.3432    0.0000 C   0  0  0  0  0  0  0  0  0  0  0  0
    8.3892    1.1020    0.0000 C   0  0  0  0  0  0  0  0  0  0  0  0
    5.9047    2.5173    0.0000 O   0  0  0  0  0  0  0  0  0  0  0  0
   10.7623    1.1088    0.0000 C   0  0  0  0  0  0  0  0  0  0  0  0
   11.6138    1.1031    0.0000 C   0  0  0  0  0  0  0  0  0  0  0  0
   11.8823    1.9111    0.0000 N   0  0  0  0  0  0  0  0  0  0  0  0
   10.5047    1.9203    0.0000 C   0  0  0  0  0  0  0  0  0  0  0  0
   11.1969    2.4119    0.0000 C   0  0  0  0  0  0  0  0  0  0  0  0
   11.1165    3.2552    0.0000 C   0  0  0  0  0  0  0  0  0  0  0  0
   10.3444    3.6080    0.0000 C   0  0  0  0  0  0  0  0  0  0  0  0
    9.6519    3.1111    0.0000 C   0  0  0  0  0  0  0  0  0  0  0  0
    9.7358    2.2695    0.0000 C   0  0  0  0  0  0  0  0  0  0  0  0
    7.5693   -1.9757    0.0000 C   0  0  0  0  0  0  0  0  0  0  0  0
    8.9982   -1.9776    0.0000 C   0  0  0  0  0  0  0  0  0  0  0  0
  8  9  1  0  0  0  0 
 17 18  2  0  0  0  0 
  9  6  1  0  0  0  0 
 18 19  1  0  0  0  0 
  7  1  1  0  0  0  0 
 19 20  2  0  0  0  0 
  3  5  2  0  0  0  0 
 20 21  1  0  0  0  0 
  8 10  2  0  0  0  0 
 21 22  2  0  0  0  0 
 22 17  1  0  0  0  0 
  2  3  1  0  0  0  0 
 22 23  1  0  0  0  0 
  9 11  1  1  0  0  0 
 18 24  1  0  0  0  0 
  1  2  1  0  0  0  0 
 20 25  1  0  0  0  0 
 26 27  2  0  0  0  0 
 11 12  1  0  0  0  0 
  3  4  1  0  0  0  0 
 12 13  1  0  0  0  0 
 27 28  1  0  0  0  0 
 28 30  1  0  0  0  0 
 29 26  1  0  0  0  0 
 12 14  2  0  0  0  0 
 29 30  2  0  0  0  0 
 26  6  1  0  0  0  0 
 30 31  1  0  0  0  0 
 13 15  1  0  0  0  0 
 31 32  2  0  0  0  0 
 27  7  1  0  0  0  0 
 32 33  1  0  0  0  0 
 13 16  1  1  0  0  0 
 33 34  2  0  0  0  0 
 34 29  1  0  0  0  0 
  1  8  1  0  0  0  0 
 16 35  1  0  0  0  0 
 15 17  1  0  0  0  0 
 16 36  1  0  0  0  0 
M  END