
          11280715032D 1   1.00000     0.00000     0

 20 21  0     0  0            999 V2000
    0.4792   -2.0417    0.0000 S   0  0  3  0  0  0           0  0  0
    3.1792   -2.5417    0.0000 N   0  0  0  0  0  0           0  0  0
    3.7792   -2.5375    0.0000 C   0  0  0  0  0  0           0  0  0
    2.8750   -2.0250    0.0000 C   0  0  0  0  0  0           0  0  0
    4.1042   -3.0417    0.0000 C   0  0  0  0  0  0           0  0  0
    1.0792   -2.0375    0.0000 C   0  0  0  0  0  0           0  0  0
    0.4792   -2.6375    0.0000 O   0  0  0  0  0  0           0  0  0
    0.4792   -1.4375    0.0000 O   0  0  0  0  0  0           0  0  0
    2.2750   -2.0292    0.0000 C   0  0  0  0  0  0           0  0  0
    4.7042   -3.0750    0.0000 O   0  0  0  0  0  0           0  0  0
   -0.1208   -2.0292    0.0000 N   0  0  0  0  0  0           0  0  0
    4.0542   -2.0042    0.0000 O   0  0  0  0  0  0           0  0  0
    3.8792   -3.6000    0.0000 C   0  0  0  0  0  0           0  0  0
    3.1667   -1.5000    0.0000 O   0  0  0  0  0  0           0  0  0
    4.8542   -3.6542    0.0000 C   0  0  0  0  0  0           0  0  0
    4.3500   -3.9792    0.0000 C   0  0  0  0  0  0           0  0  0
    1.3750   -1.5167    0.0000 C   0  0  0  0  0  0           0  0  0
    1.3792   -2.5542    0.0000 C   0  0  0  0  0  0           0  0  0
    1.9792   -2.5500    0.0000 C   0  0  0  0  0  0           0  0  0
    1.9667   -1.5125    0.0000 C   0  0  0  0  0  0           0  0  0
  2  4  1  0     0  0
  3  2  1  0     0  0
  4  9  1  0     0  0
  5  3  1  0     0  0
  6  1  1  0     0  0
  7  1  2  0     0  0
  8  1  2  0     0  0
  9 19  2  0     0  0
 10  5  1  0     0  0
 11  1  1  0     0  0
 12  3  2  0     0  0
 13  5  2  0     0  0
 14  4  2  0     0  0
 15 10  1  0     0  0
 16 13  1  0     0  0
 17  6  1  0     0  0
 18  6  2  0     0  0
 19 18  1  0     0  0
 20 17  2  0     0  0
 20  9  1  0     0  0
 16 15  2  0     0  0
M  END