
          11280715372D 1   1.00000     0.00000     0

 37 40  0     0  0            999 V2000
    4.2917   -3.9667    0.0000 C   0  0  0  0  0  0           0  0  0
    4.3000   -4.8500    0.0000 C   0  0  0  0  0  0           0  0  0
    3.5292   -5.2875    0.0000 N   0  0  3  0  0  0           0  0  0
    2.7750   -3.9667    0.0000 N   0  0  3  0  0  0           0  0  0
    2.7750   -4.8500    0.0000 C   0  0  0  0  0  0           0  0  0
    3.5292   -3.5167    0.0000 C   0  0  0  0  0  0           0  0  0
    5.1375   -3.6875    0.0000 N   0  0  0  0  0  0           0  0  0
    5.1417   -5.1167    0.0000 N   0  0  0  0  0  0           0  0  0
    5.6625   -4.4000    0.0000 C   0  0  0  0  0  0           0  0  0
    2.6917  -11.0167    0.0000 N   0  3  0  0  0  0           0  0  0
    3.5292   -6.1667    0.0000 C   0  0  0  0  0  0           0  0  0
    2.6667  -11.9042    0.0000 N   0  5  0  0  0  0           0  0  0
    2.7042  -10.1375    0.0000 N   0  0  0  0  0  0           0  0  0
    2.7250   -9.2542    0.0000 C   0  0  0  0  0  0           0  0  0
    6.5417   -4.3917    0.0000 C   0  0  0  0  0  0           0  0  0
    2.0042   -5.2917    0.0000 O   0  0  0  0  0  0           0  0  0
    3.5042   -8.8250    0.0000 C   0  0  0  0  0  0           0  0  0
    3.5292   -2.6375    0.0000 O   0  0  0  0  0  0           0  0  0
   10.5167   -5.1375    0.0000 C   0  0  0  0  0  0           0  0  0
    3.5167   -7.9417    0.0000 C   0  0  0  0  0  0           0  0  0
   10.9542   -4.3667    0.0000 O   0  0  0  0  0  0           0  0  0
    2.0042   -3.5250    0.0000 C   0  0  0  0  0  0           0  0  0
    1.9667   -8.7917    0.0000 C   0  0  0  0  0  0           0  0  0
    6.9750   -3.6292    0.0000 C   0  0  0  0  0  0           0  0  0
    6.9875   -5.1542    0.0000 C   0  0  0  0  0  0           0  0  0
    9.1917   -4.3792    0.0000 O   0  0  0  0  0  0           0  0  0
    2.7625   -7.4917    0.0000 C   0  0  0  0  0  0           0  0  0
    2.7667   -6.6042    0.0000 C   0  0  0  0  0  0           0  0  0
    9.6375   -5.1417    0.0000 C   0  0  0  0  0  0           0  0  0
    4.2667   -9.2667    0.0000 I   0  0  0  0  0  0           0  0  0
    8.3042   -4.3792    0.0000 C   0  0  0  0  0  0           0  0  0
   10.9667   -5.9000    0.0000 O   0  0  0  0  0  0           0  0  0
    1.9917   -7.9125    0.0000 C   0  0  0  0  0  0           0  0  0
    7.8542   -3.6167    0.0000 C   0  0  0  0  0  0           0  0  0
    7.8667   -5.1542    0.0000 C   0  0  0  0  0  0           0  0  0
    2.0042   -2.6417    0.0000 C   0  0  0  0  0  0           0  0  0
    1.2375   -2.2042    0.0000 C   0  0  0  0  0  0           0  0  0
  2  1  2  0     0  0
  3  2  1  0     0  0
  4  6  1  0     0  0
  5  4  1  0     0  0
  6  1  1  0     0  0
  7  1  1  0     0  0
  8  2  1  0     0  0
  9  7  2  0     0  0
 10 13  2  0     0  0
 11  3  1  0     0  0
 12 10  2  0     0  0
 13 14  1  0     0  0
 14 23  2  0     0  0
 15  9  1  0     0  0
 16  5  2  0     0  0
 17 20  2  0     0  0
 18  6  2  0     0  0
 19 29  1  0     0  0
 20 27  1  0     0  0
 21 19  2  0     0  0
 22  4  1  0     0  0
 23 33  1  0     0  0
 24 15  1  0     0  0
 25 15  2  0     0  0
 26 31  1  0     0  0
 27 28  1  0     0  0
 28 11  1  0     0  0
 29 26  1  0     0  0
 30 17  1  0     0  0
 31 35  2  0     0  0
 32 19  1  0     0  0
 33 27  2  0     0  0
 34 24  2  0     0  0
 35 25  1  0     0  0
 36 22  1  0     0  0
 37 36  1  0     0  0
  8  9  1  0     0  0
  3  5  1  0     0  0
 34 31  1  0     0  0
 14 17  1  0     0  0
M  CHG  2  10   1  12  -1
M  END