
  SciTegic01161211252D

 30 33  0  0  0  0            999 V2000
   14.2975   -0.3363    0.0000 C   0  0
   14.9593    0.1570    0.0000 C   0  0
   14.6947    0.9388    0.0000 C   0  0
   13.8693    0.9287    0.0000 N   0  0
   13.6241    0.1413    0.0000 N   0  0
   12.9097   -0.2644    0.0000 C   0  0
   12.1987    0.1562    0.0000 C   0  0
   11.4810   -0.2493    0.0000 C   0  0
   11.4732   -1.0751    0.0000 C   0  0
   12.1890   -1.4939    0.0000 C   0  0
   12.9037   -1.0860    0.0000 C   0  0
   15.0988    1.6585    0.0000 C   0  0
   15.9237    1.6685    0.0000 N   0  0
   14.6777    2.3680    0.0000 O   0  0
   16.3276    2.3879    0.0000 N   0  0
   14.3098   -1.1592    0.0000 C   0  0
   13.5987   -1.5798    0.0000 C   0  0
   13.6084   -2.4039    0.0000 C   0  0
   14.3284   -2.8085    0.0000 C   0  0
   15.0401   -2.3829    0.0000 C   0  0
   15.0269   -1.5601    0.0000 C   0  0
   10.7557   -1.4822    0.0000 Cl  0  0
   14.3396   -3.6334    0.0000 Cl  0  0
   12.2069    0.9811    0.0000 Cl  0  0
   15.7470   -0.0884    0.0000 S   0  0
   15.9283   -0.8932    0.0000 C   0  0
   17.1436    2.4878    0.0000 C   0  0
   17.3054    3.2968    0.0000 C   0  0
   16.5859    3.7007    0.0000 C   0  0
   15.9796    3.1412    0.0000 C   0  0
  2  3  1  0
 13 15  1  0
  7  8  1  0
  3  4  2  0
 16 17  2  0
  8  9  2  0
 17 18  1  0
  4  5  1  0
 18 19  2  0
  9 10  1  0
 19 20  1  0
  5  1  1  0
 20 21  2  0
 21 16  1  0
  1 16  1  0
 10 11  2  0
  9 22  1  0
 11  6  1  0
 19 23  1  0
  5  6  1  0
  7 24  1  0
  1  2  2  0
  2 25  1  0
  3 12  1  0
 25 26  1  0
 15 27  1  0
 12 13  1  0
  6  7  2  0
 12 14  2  0
 27 28  1  0
 28 29  1  0
 29 30  1  0
 30 15  1  0
M  END