
  SciTegic06051313552D

 12 13  0  0  0  0            999 V2000
    0.1265   -8.6383    0.0000 C   0  0
    0.1254   -9.4578    0.0000 C   0  0
    0.8334   -9.8668    0.0000 C   0  0
    0.8316   -8.2294    0.0000 C   0  0
    1.5403   -8.6347    0.0000 C   0  0
    1.5451   -9.4578    0.0000 N   0  0
    2.3295   -9.7076    0.0000 C   0  0
    2.8095   -9.0388    0.0000 C   0  0
    2.3216   -8.3758    0.0000 N   0  0
    3.6299   -9.0340    0.0000 C   0  0
    4.0427   -9.7393    0.0000 O   0  0
    4.0343   -8.3239    0.0000 O   0  0
  1  2  1  0
  2  3  2  0
  3  6  1  0
  5  4  1  0
  4  1  2  0
  5  6  1  0
  6  7  1  0
  7  8  2  0
  8  9  1  0
  9  5  2  0
 10 11  1  0
 10 12  2  0
  8 10  1  0
M  END