
          11280715142D 1   1.00000     0.00000     0

 40 41  0     0  0            999 V2000
    4.6625   -3.0875    0.0000 S   0  0  3  0  0  0           0  0  0
    4.0625   -3.0875    0.0000 N   0  5  0  0  0  0           0  0  0
    3.5417   -3.3792    0.0000 C   0  0  0  0  0  0           0  0  0
    3.0167   -3.0875    0.0000 C   0  0  3  0  0  0           0  0  0
    3.0167   -2.4875    0.0000 O   0  0  0  0  0  0           0  0  0
    2.5042   -3.3917    0.0000 C   0  0  0  0  0  0           0  0  0
    4.8667   -1.0750    0.0000 C   0  0  0  0  0  0           0  0  0
    5.2625   -3.0875    0.0000 C   0  0  0  0  0  0           0  0  0
    3.3125   -1.9625    0.0000 C   0  0  0  0  0  0           0  0  0
    4.3417   -1.3667    0.0000 C   0  0  0  0  0  0           0  0  0
    1.4667   -3.3917    0.0000 C   0  0  0  0  0  0           0  0  0
    1.9792   -3.0917    0.0000 C   0  0  0  0  0  0           0  0  0
    4.6792   -2.3125    0.0000 O   0  0  0  0  0  0           0  0  0
    4.6625   -3.9292    0.0000 O   0  0  0  0  0  0           0  0  0
    3.8292   -1.0750    0.0000 C   0  0  0  0  0  0           0  0  0
    3.3125   -1.3667    0.0000 C   0  0  0  0  0  0           0  0  0
    1.4667   -3.9917    0.0000 C   0  0  0  0  0  0           0  0  0
    0.8917   -3.2042    0.0000 O   0  0  0  0  0  0           0  0  0
    3.5375   -3.9792    0.0000 O   0  0  0  0  0  0           0  0  0
    0.8917   -4.1792    0.0000 O   0  0  0  0  0  0           0  0  0
    0.5375   -3.6917    0.0000 C   0  0  0  0  0  0           0  0  0
    5.3875   -1.3667    0.0000 O   0  5  0  0  0  0           0  0  0
    2.5042   -3.9917    0.0000 C   0  0  0  0  0  0           0  0  0
    6.4542   -3.0875    0.0000 C   0  0  0  0  0  0           0  0  0
    4.8667   -0.4667    0.0000 O   0  0  0  0  0  0           0  0  0
    3.8292   -2.2625    0.0000 C   0  0  0  0  0  0           0  0  0
    4.3417   -1.9667    0.0000 C   0  0  0  0  0  0           0  0  0
    5.5542   -2.5667    0.0000 C   0  0  0  0  0  0           0  0  0
    5.5542   -3.6042    0.0000 C   0  0  0  0  0  0           0  0  0
    1.9792   -4.2917    0.0000 C   0  0  0  0  0  0           0  0  0
    6.1542   -3.6042    0.0000 C   0  0  0  0  0  0           0  0  0
    6.1542   -2.5667    0.0000 C   0  0  0  0  0  0           0  0  0
    7.0542   -3.0875    0.0000 C   0  0  3  0  0  0           0  0  0
    4.0875   -4.5292    0.0000 K   0  3  0  0  0  0           0  0  0
    5.9542   -0.4667    0.0000 K   0  3  0  0  0  0           0  0  0
    2.7917   -1.0667    0.0000 C   0  0  0  0  0  0           0  0  0
    7.3500   -2.5667    0.0000 C   0  0  0  0  0  0           0  0  0
    7.3542   -3.6042    0.0000 C   0  0  0  0  0  0           0  0  0
    2.7917   -0.4667    0.0000 C   0  0  0  0  0  0           0  0  0
    2.2750   -0.1667    0.0000 C   0  0  0  0  0  0           0  0  0
  2  1  1  0     0  0
  3  2  1  0     0  0
  4  3  1  0     0  0
  5  4  1  0     0  0
  6  4  1  0     0  0
  7 10  1  0     0  0
  8  1  1  0     0  0
  9  5  1  0     0  0
 10 27  2  0     0  0
 11 12  1  0     0  0
 12  6  2  0     0  0
 13  1  2  0     0  0
 14  1  2  0     0  0
 15 16  2  0     0  0
 16  9  1  0     0  0
 17 30  1  0     0  0
 18 11  1  0     0  0
 19  3  2  0     0  0
 20 17  1  0     0  0
 21 18  1  0     0  0
 22  7  1  0     0  0
 23  6  1  0     0  0
 24 31  2  0     0  0
 25  7  2  0     0  0
 26  9  2  0     0  0
 27 26  1  0     0  0
 28  8  1  0     0  0
 29  8  2  0     0  0
 30 23  2  0     0  0
 31 29  1  0     0  0
 32 28  2  0     0  0
 33 24  1  0     0  0
 36 16  1  0     0  0
 37 33  1  0     0  0
 38 33  1  0     0  0
 39 36  1  0     0  0
 40 39  1  0     0  0
 32 24  1  0     0  0
 11 17  2  0     0  0
 15 10  1  0     0  0
 21 20  1  0     0  0
M  CHG  4   2  -1  22  -1  34   1  35   1
M  END