
          05080814032D 1   1.00000     0.00000     0

 33 37  0     0  0            999 V2000
   -4.6681  -10.7541    0.0000 C   0  0  0  0  0  0           0  0  0
   -4.6693  -11.5815    0.0000 C   0  0  0  0  0  0           0  0  0
   -3.9544  -11.9944    0.0000 C   0  0  0  0  0  0           0  0  0
   -3.9562  -10.3414    0.0000 C   0  0  0  0  0  0           0  0  0
   -3.2409  -10.7505    0.0000 C   0  0  0  0  0  0           0  0  0
   -3.2406  -11.5769    0.0000 C   0  0  0  0  0  0           0  0  0
   -2.4545  -11.8321    0.0000 N   0  0  3  0  0  0           0  0  0
   -1.9689  -11.1633    0.0000 C   0  0  0  0  0  0           0  0  0
   -2.4549  -10.4949    0.0000 N   0  0  0  0  0  0           0  0  0
   -3.9526  -12.8216    0.0000 C   0  0  0  0  0  0           0  0  0
   -4.6660  -13.2360    0.0000 O   0  0  0  0  0  0           0  0  0
   -3.2370  -13.2322    0.0000 O   0  0  0  0  0  0           0  0  0
   -2.1993  -12.6167    0.0000 C   0  0  0  0  0  0           0  0  0
   -1.3923  -12.7880    0.0000 C   0  0  0  0  0  0           0  0  0
   -1.1390  -13.5738    0.0000 C   0  0  0  0  0  0           0  0  0
   -0.3328  -13.7452    0.0000 C   0  0  0  0  0  0           0  0  0
    0.2200  -13.1316    0.0000 C   0  0  0  0  0  0           0  0  0
   -0.0390  -12.3438    0.0000 C   0  0  0  0  0  0           0  0  0
   -0.8446  -12.1761    0.0000 C   0  0  0  0  0  0           0  0  0
    1.0272  -13.3019    0.0000 N   0  0  3  0  0  0           0  0  0
    1.3648  -14.0519    0.0000 C   0  0  0  0  0  0           0  0  0
    2.1852  -13.9643    0.0000 C   0  0  0  0  0  0           0  0  0
    2.3554  -13.1570    0.0000 C   0  0  0  0  0  0           0  0  0
    1.6403  -12.7458    0.0000 C   0  0  0  0  0  0           0  0  0
    1.5530  -11.9299    0.0000 C   0  0  0  0  0  0           0  0  0
    2.1646  -11.3761    0.0000 N   0  0  0  0  0  0           0  0  0
    1.8269  -10.6234    0.0000 N   0  0  0  0  0  0           0  0  0
    1.0066  -10.7119    0.0000 N   0  0  0  0  0  0           0  0  0
    0.8374  -11.5193    0.0000 N   0  0  0  0  0  0           0  0  0
   -1.1439  -11.1630    0.0000 C   0  0  0  0  0  0           0  0  0
   -0.7316  -10.4484    0.0000 C   0  0  0  0  0  0           0  0  0
   -1.1444   -9.7341    0.0000 C   0  0  0  0  0  0           0  0  0
   -0.7322   -9.0194    0.0000 C   0  0  0  0  0  0           0  0  0
 15 16  1  0     0  0
  6  7  1  0     0  0
 16 17  2  0     0  0
  7  8  1  0     0  0
 17 18  1  0     0  0
  8  9  2  0     0  0
 18 19  2  0     0  0
 19 14  1  0     0  0
  9  5  1  0     0  0
 17 20  1  0     0  0
 20 21  1  0     0  0
  4  1  1  0     0  0
  5  6  1  0     0  0
 10 11  1  0     0  0
 21 22  2  0     0  0
 22 23  1  0     0  0
 23 24  2  0     0  0
 24 20  1  0     0  0
 25 26  1  0     0  0
 10 12  2  0     0  0
  3 10  1  0     0  0
  2  3  1  0     0  0
  7 13  1  0     0  0
  3  6  2  0     0  0
 26 27  1  0     0  0
 27 28  2  0     0  0
 28 29  1  0     0  0
 29 25  2  0     0  0
 24 25  1  0     0  0
 13 14  1  0     0  0
  8 30  1  0     0  0
  1  2  2  0     0  0
 30 31  1  0     0  0
 14 15  2  0     0  0
 31 32  1  0     0  0
  5  4  2  0     0  0
 32 33  1  0     0  0
M  END