
  SciTegic10011413212D

 24 28  0  0  0  0            999 V2000
   13.6184  -27.6565    0.0000 C   0  0
   13.6173  -28.4761    0.0000 C   0  0
   14.3253  -28.8850    0.0000 C   0  0
   14.3235  -27.2477    0.0000 C   0  0
   15.0322  -27.6529    0.0000 C   0  0
   15.0310  -28.4736    0.0000 C   0  0
   16.4502  -27.6549    0.0000 C   0  0  1  0  0  0
   15.7395  -27.2413    0.0000 N   0  0
   16.4491  -28.4756    0.0000 C   0  0
   15.7374  -28.8828    0.0000 N   0  0
   15.9048  -29.6854    0.0000 N   0  0
   16.7199  -29.7743    0.0000 N   0  0
   17.0562  -29.0266    0.0000 N   0  0
   17.1589  -27.2480    0.0000 C   0  0
   17.8641  -27.6630    0.0000 C   0  0
   18.5723  -27.2568    0.0000 C   0  0
   18.5747  -26.4387    0.0000 C   0  0
   17.8630  -26.0286    0.0000 C   0  0
   17.1577  -26.4371    0.0000 C   0  0
   19.2829  -26.0309    0.0000 Cl  0  0
   15.7395  -26.4241    0.0000 C   0  0
   16.4473  -26.0156    0.0000 C   0  0
   17.2642  -26.0138    0.0000 C   0  0
   16.8556  -25.3061    0.0000 C   0  0
  1  2  2  0
  2  3  1  0
  3  6  2  0
  5  4  2  0
  4  1  1  0
  5  6  1  0
  5  8  1  0
  6 10  1  0
  9  7  1  0
  7  8  1  0
  9 10  1  0
 10 11  1  0
 11 12  2  0
 12 13  1  0
 13  9  2  0
  7 14  1  6
 14 15  2  0
 15 16  1  0
 16 17  2  0
 17 18  1  0
 18 19  2  0
 19 14  1  0
 17 20  1  0
  8 21  1  0
 21 22  1  0
 23 22  1  0
 24 23  1  0
 22 24  1  0
M  END