
  SciTegic12231509382D

 55 58  0  0  1  0            999 V2000
   10.7042   -9.4542    0.0000 C   0  0  1  0  0  0
    9.8042   -8.9375    0.0000 C   0  0  1  0  0  0
   11.6042   -7.8917    0.0000 C   0  0  1  0  0  0
   11.6042   -8.9375    0.0000 C   0  0  2  0  0  0
    9.8042   -7.8917    0.0000 C   0  0  2  0  0  0
   10.7042   -7.3625    0.0000 C   0  0  1  0  0  0
   11.4250  -10.9000    0.0000 P   0  0
    8.3667  -10.3625    0.0000 P   0  0
   13.5542   -7.3667    0.0000 P   0  0
   10.7042  -10.5000    0.0000 O   0  0
    8.9000   -9.4625    0.0000 O   0  0
   12.5167   -7.3667    0.0000 O   0  0
   22.0250   -7.2417    0.0000 C   0  0
   22.0250  -10.3625    0.0000 N   0  3
   22.0250   -6.2042    0.0000 C   0  0
   22.0250   -9.3125    0.0000 C   0  0
   21.1167   -7.7542    0.0000 C   0  0
   22.9250   -7.7542    0.0000 C   0  0
   22.9250   -8.7917    0.0000 C   0  0
   21.1167   -8.7917    0.0000 C   0  0
   18.2625   -4.6542    0.0000 C   0  0
   21.1042   -5.6667    0.0000 C   0  0
   22.9250   -5.6667    0.0000 C   0  0
   19.3000   -4.6542    0.0000 C   0  0
   11.7792  -10.1042    0.0000 O   0  0
    7.3167  -10.3542    0.0000 O   0  0
   13.5542   -6.3250    0.0000 O   0  0
   24.7375   -4.6292    0.0000 C   0  0
   25.6542   -4.0667    0.0000 N   0  0
   17.7417   -3.7542    0.0000 O   0  0
   21.1042   -4.6542    0.0000 C   0  0
   20.2042   -6.2042    0.0000 C   0  0
   22.9250   -4.6292    0.0000 C   0  0
   23.8375   -6.1792    0.0000 C   0  0
   19.3000   -5.6667    0.0000 C   0  0
   20.2042   -4.1292    0.0000 C   0  0
   24.7375   -5.6667    0.0000 C   0  0
   23.8375   -4.0917    0.0000 C   0  0
    9.3750  -10.6292    0.0000 O   0  0
    7.7292  -11.1917    0.0000 O   0  0
   12.3750  -11.4542    0.0000 O   0  0
   11.0292  -11.9250    0.0000 O   0  0
   13.5542   -8.4125    0.0000 O   0  0
   12.5125   -9.4625    0.0000 O   0  0
   10.7042   -6.3167    0.0000 O   0  0
    8.8917   -7.3667    0.0000 O   0  0
   17.7375   -5.5542    0.0000 N   0  0
   14.6042   -7.3667    0.0000 O   0  0
   22.9250  -10.8792    0.0000 C   0  0
   21.1167  -10.8792    0.0000 C   0  0
   16.1667   -6.4625    0.0000 C   0  0
   16.6917   -5.5542    0.0000 C   0  0
   26.5417   -4.5917    0.0000 C   0  0
   25.6542   -3.0375    0.0000 C   0  0
   15.1250   -6.4625    0.0000 C   0  0
  2  1  1  0
  3  4  1  0
  4  1  1  0
  5  2  1  0
  6  3  1  0
  7 10  1  0
  8 11  1  0
  9 12  1  0
  1 10  1  1
  2 11  1  6
  3 12  1  1
 13 15  2  0
 14 16  2  0
 15 22  1  0
 16 19  1  0
 17 13  1  0
 18 13  1  0
 19 18  2  0
 20 17  2  0
 21 47  1  0
 22 32  1  0
 23 15  1  0
 24 21  1  0
 25  7  2  0
 26  8  2  0
 27  9  2  0
 28 38  1  0
 29 28  1  0
 30 21  2  0
 31 36  1  0
 32 35  2  0
 33 23  1  0
 34 23  2  0
 35 24  1  0
 36 24  2  0
 37 34  1  0
 38 33  2  0
 39  8  1  0
 40  8  1  0
 41  7  1  0
 42  7  1  0
 43  9  1  0
  4 44  1  6
  6 45  1  1
  5 46  1  1
 47 52  1  0
 48  9  1  0
 49 14  1  0
 50 14  1  0
 51 55  1  0
 52 51  1  0
 53 29  1  0
 54 29  1  0
 55 48  1  0
  6  5  1  0
 31 22  2  0
 37 28  2  0
 20 16  1  0
M  CHG  1  14   1
M  END