
  SciTegic02011310462D

 31 34  0  0  0  0            999 V2000
   10.7796   -8.7629    0.0000 N   0  0
    9.9879   -9.0170    0.0000 C   0  0  1  0  0  0
   11.5603   -9.0277    0.0000 C   0  0
   12.0589   -8.3723    0.0000 C   0  0
   11.5800   -7.6942    0.0000 N   0  0
    9.7379   -9.8087    0.0000 C   0  0  1  0  0  0
   10.7861   -7.9339    0.0000 C   0  0
    9.3171   -8.5379    0.0000 O   0  0
    8.9087   -9.8171    0.0000 C   0  0  1  0  0  0
    8.6503   -9.0295    0.0000 C   0  0  1  0  0  0
   12.8775   -8.4733    0.0000 C   0  0
   11.8801   -9.7843    0.0000 N   0  0
   13.1971   -9.2300    0.0000 N   0  0
   12.6997   -9.8894    0.0000 C   0  0
   10.2338  -10.4838    0.0000 O   0  0
    8.4212  -10.4921    0.0000 O   0  0
    7.8587   -8.7753    0.0000 C   0  0
    7.2753   -9.3629    0.0000 O   0  0
   13.1302  -10.5929    0.0000 N   0  0
   13.3748   -7.8150    0.0000 C   0  0
   14.1935   -7.9165    0.0000 F   0  0
   13.0534   -7.0552    0.0000 F   0  0
   13.7797   -7.0962    0.0000 F   0  0
   13.9550  -10.5722    0.0000 C   0  0
   14.3853  -11.2761    0.0000 C   0  0
   15.2100  -11.2554    0.0000 C   0  0
   15.6356  -11.9599    0.0000 C   0  0
   16.4596  -11.9395    0.0000 C   0  0
   16.8549  -11.2144    0.0000 C   0  0
   16.4201  -10.5082    0.0000 C   0  0
   15.5976  -10.5319    0.0000 C   0  0
  2  1  1  1
  3  1  1  0
  4  3  2  0
  5  7  2  0
  6  2  1  0
  7  1  1  0
  8  2  1  0
  9  6  1  0
 10  8  1  0
 11  4  1  0
 12  3  1  0
 13 14  1  0
 14 12  2  0
  6 15  1  6
  9 16  1  6
 10 17  1  1
 18 17  1  0
  4  5  1  0
  9 10  1  0
 13 11  2  0
 14 19  1  0
 11 20  1  0
 20 21  1  0
 20 22  1  0
 20 23  1  0
 19 24  1  0
 24 25  1  0
 25 26  1  0
 26 27  2  0
 27 28  1  0
 28 29  2  0
 29 30  1  0
 30 31  2  0
 31 26  1  0
M  END