
  SciTegic04191610272D

 27 30  0  0  0  0            999 V2000
   -0.6686  -10.8865    0.0000 C   0  0
   -0.1767   -9.7920    0.0000 C   0  0
    1.0130   -9.6351    0.0000 C   0  0
   -1.0028    1.5132    0.0000 N   0  0
   -2.3155    0.7475    0.0000 C   0  0
   -2.3155   -0.7475    0.0000 N   0  0
   -1.0028   -1.5132    0.0000 C   0  0
    0.2917    0.7475    0.0000 C   0  0
    0.2917   -0.7475    0.0000 C   0  0
    1.7138   -1.2033    0.0000 C   0  0
    2.5889    0.0182    0.0000 C   0  0
    1.7138    1.2033    0.0000 S   0  0
   -0.9982   -3.0140    0.0000 N   0  0
   -2.2894   -3.7767    0.0000 C   0  0
   -2.2745   -5.2767    0.0000 C   0  0
   -0.9680   -6.0137    0.0000 N   0  0
    0.3235   -5.2508    0.0000 C   0  0
    0.3086   -3.7509    0.0000 C   0  0
   -0.9531   -7.5144    0.0000 C   0  0
   -2.1566   -8.3882    0.0000 N   0  0
   -1.6766   -9.8093    0.0000 C   0  0
    0.2703   -8.3601    0.0000 S   0  0
    4.0872    0.0382    0.0000 C   0  0
    4.8208    1.3475    0.0000 C   0  0
    6.0207    1.3637    0.0000 F   0  0
    4.2072    2.3788    0.0000 F   0  0
    5.4070    2.3946    0.0000 F   0  0
  2  1  1  0
  3  2  1  0
  9  7  2  0
  8  4  2  0
  4  5  1  0
  5  6  2  0
  6  7  1  0
  8  9  1  0
  9 10  1  0
 10 11  2  0
 11 12  1  0
 12  8  1  0
 13 14  1  0
 13 18  1  0
 14 15  1  0
 15 16  1  0
 16 17  1  0
 17 18  1  0
  7 13  1  0
 19 20  2  0
 20 21  1  0
 21  2  1  0
  2 22  1  0
 22 19  1  0
 16 19  1  0
 11 23  1  0
 23 24  1  0
 24 25  1  0
 24 26  1  0
 24 27  1  0
M  END