
  CDK    9/16/09,9:47

 37 39  0  0  0  0  0  0  0  0999 V2000
   -0.3031   -0.8501    0.0000 N   0  0  0  0  0  0  0  0  0  0  0  0
    0.5084   -1.0091    0.0000 C   0  0  0  0  0  0  0  0  0  0  0  0
    0.9135   -0.2864    0.0000 C   0  0  0  0  0  0  0  0  0  0  0  0
    0.3509    0.3168    0.0000 N   0  0  0  0  0  0  0  0  0  0  0  0
   -0.3971   -0.0359    0.0000 C   0  0  0  0  0  0  0  0  0  0  0  0
    0.9059   -1.7307    0.0000 C   0  0  0  0  0  0  0  0  0  0  0  0
    0.4751   -2.4354    0.0000 C   0  0  0  0  0  0  0  0  0  0  0  0
    0.8669   -3.1620    0.0000 C   0  0  0  0  0  0  0  0  0  0  0  0
    1.6956   -3.1786    0.0000 C   0  0  0  0  0  0  0  0  0  0  0  0
    2.1216   -2.4678    0.0000 C   0  0  0  0  0  0  0  0  0  0  0  0
    1.7291   -1.7470    0.0000 C   0  0  0  0  0  0  0  0  0  0  0  0
    2.0887   -3.9028    0.0000 F   0  0  0  0  0  0  0  0  0  0  0  0
    0.3495    1.1465    0.0000 C   0  0  0  0  0  0  0  0  0  0  0  0
    1.0614    1.5603    0.0000 C   0  0  0  0  0  0  0  0  0  0  0  0
   -0.3686    1.5537    0.0000 C   0  0  0  0  0  0  0  0  0  0  0  0
    1.6287    0.1255    0.0000 C   0  0  0  0  0  0  0  0  0  0  0  0
    2.3407   -0.2912    0.0000 C   0  0  0  0  0  0  0  0  0  0  0  0
    3.0626    0.1212    0.0000 C   0  0  0  0  0  0  0  0  0  0  0  0
    3.7738   -0.2923    0.0000 C   0  0  0  0  0  0  0  0  0  0  0  0
    4.4893    0.1190    0.0000 C   0  0  0  0  0  0  0  0  0  0  0  0
    5.1993   -0.2940    0.0000 C   0  0  0  0  0  0  0  0  0  0  0  0
    5.9200    0.1139    0.0000 C   0  0  0  0  0  0  0  0  0  0  0  0
    6.6289   -0.2971    0.0000 O   0  0  0  0  0  0  0  0  0  0  0  0
    5.9213    0.9405    0.0000 O   0  0  0  0  0  0  0  0  0  0  0  0
    3.0597    0.9428    0.0000 O   0  0  0  0  0  0  0  0  0  0  0  0
    4.4863    0.9453    0.0000 O   0  0  0  0  0  0  0  0  0  0  0  0
   -1.1183    0.3633    0.0000 C   0  0  0  0  0  0  0  0  0  0  0  0
   -1.8474   -0.0114    0.0000 N   0  0  0  0  0  0  0  0  0  0  0  0
   -1.1332    1.1834    0.0000 O   0  0  0  0  0  0  0  0  0  0  0  0
   -2.5373    0.4338    0.0000 C   0  0  0  0  0  0  0  0  0  0  0  0
   -3.2710    0.0637    0.0000 C   0  0  0  0  0  0  0  0  0  0  0  0
   -3.9804    0.4735    0.0000 C   0  0  0  0  0  0  0  0  0  0  0  0
   -4.6928    0.0627    0.0000 C   0  0  0  0  0  0  0  0  0  0  0  0
   -4.6899   -0.7623    0.0000 C   0  0  0  0  0  0  0  0  0  0  0  0
   -3.9732   -1.1725    0.0000 C   0  0  0  0  0  0  0  0  0  0  0  0
   -3.2624   -0.7531    0.0000 C   0  0  0  0  0  0  0  0  0  0  0  0
   -3.9678   -1.9967    0.0000 F   0  0  0  0  0  0  0  0  0  0  0  0
  1  2  1  0  0  0  0 
  2  3  2  0  0  0  0 
  3  4  1  0  0  0  0 
  4  5  1  0  0  0  0 
  5  1  2  0  0  0  0 
  2  6  1  0  0  0  0 
  6  7  2  0  0  0  0 
  7  8  1  0  0  0  0 
  8  9  2  0  0  0  0 
  9 10  1  0  0  0  0 
 10 11  2  0  0  0  0 
 11  6  1  0  0  0  0 
  9 12  1  0  0  0  0 
  4 13  1  0  0  0  0 
 13 14  1  0  0  0  0 
 13 15  1  0  0  0  0 
  3 16  1  0  0  0  0 
 16 17  1  0  0  0  0 
 17 18  1  0  0  0  0 
 18 19  1  0  0  0  0 
 19 20  1  0  0  0  0 
 20 21  1  0  0  0  0 
 21 22  1  0  0  0  0 
 22 23  1  0  0  0  0 
 22 24  2  0  0  0  0 
 18 25  1  1  0  0  0 
 20 26  1  1  0  0  0 
  5 27  1  0  0  0  0 
 27 28  1  0  0  0  0 
 27 29  2  0  0  0  0 
 28 30  1  0  0  0  0 
 30 31  1  0  0  0  0 
 31 32  2  0  0  0  0 
 32 33  1  0  0  0  0 
 33 34  2  0  0  0  0 
 34 35  1  0  0  0  0 
 35 36  2  0  0  0  0 
 36 31  1  0  0  0  0 
 35 37  1  0  0  0  0 
M  END