
          02060813482D 1   1.00000     0.00000     0

 39 42  0     0  0            999 V2000
   -3.8556   -0.1750    0.0000 C   0  0  0  0  0  0           0  0  0
   -3.8568   -1.0023    0.0000 C   0  0  0  0  0  0           0  0  0
   -3.1419   -1.4152    0.0000 C   0  0  0  0  0  0           0  0  0
   -2.4255   -1.0019    0.0000 C   0  0  0  0  0  0           0  0  0
   -2.4284   -0.1713    0.0000 C   0  0  0  0  0  0           0  0  0
   -3.1437    0.2378    0.0000 C   0  0  0  0  0  0           0  0  0
   -4.5716   -1.4143    0.0000 Cl  0  0  0  0  0  0           0  0  0
   -3.1462    1.0628    0.0000 C   0  0  0  0  0  0           0  0  0
   -2.4330    1.4774    0.0000 N   0  0  3  0  0  0           0  0  0
   -2.4354    2.3024    0.0000 C   0  0  0  0  0  0           0  0  0
   -1.7222    2.7171    0.0000 C   0  0  3  0  0  0           0  0  0
   -3.1511    2.7128    0.0000 O   0  0  0  0  0  0           0  0  0
   -1.7154    0.2439    0.0000 O   0  0  0  0  0  0           0  0  0
   -1.7104   -1.4132    0.0000 C   0  0  0  0  0  0           0  0  0
   -1.7140   -2.2386    0.0000 C   0  0  0  0  0  0           0  0  0
   -0.9997   -2.6499    0.0000 C   0  0  0  0  0  0           0  0  0
   -0.2849   -2.2362    0.0000 C   0  0  0  0  0  0           0  0  0
   -0.2889   -1.4069    0.0000 C   0  0  0  0  0  0           0  0  0
   -1.0037   -0.9994    0.0000 N   0  0  0  0  0  0           0  0  0
    0.4235   -0.9908    0.0000 O   0  0  0  0  0  0           0  0  0
    0.4308   -2.6466    0.0000 C   0  0  0  0  0  0           0  0  0
    1.1417   -3.0583    0.0000 N   0  0  0  0  0  0           0  0  0
   -0.9988   -3.4749    0.0000 C   0  0  0  0  0  0           0  0  0
   -1.7123   -3.8832    0.0000 C   0  0  0  0  0  0           0  0  0
   -1.7117   -4.7075    0.0000 C   0  0  0  0  0  0           0  0  0
   -0.9962   -5.1200    0.0000 C   0  0  0  0  0  0           0  0  0
   -0.2799   -4.7023    0.0000 C   0  0  0  0  0  0           0  0  0
   -0.2839   -3.8794    0.0000 C   0  0  0  0  0  0           0  0  0
   -2.4261   -3.4696    0.0000 Cl  0  0  0  0  0  0           0  0  0
    0.4365   -5.1115    0.0000 C   0  0  3  0  0  0           0  0  0
    1.1458   -5.5208    0.0000 F   0  0  0  0  0  0           0  0  0
    0.8473   -4.3960    0.0000 F   0  0  0  0  0  0           0  0  0
    0.0310   -5.8300    0.0000 F   0  0  0  0  0  0           0  0  0
   -1.7173    1.0671    0.0000 C   0  0  0  0  0  0           0  0  0
   -1.0055    2.3056    0.0000 C   0  0  0  0  0  0           0  0  0
   -0.2944    2.7167    0.0000 C   0  0  0  0  0  0           0  0  0
   -0.2926    3.5420    0.0000 C   0  0  0  0  0  0           0  0  0
   -1.0082    3.9546    0.0000 C   0  0  0  0  0  0           0  0  0
   -1.7255    3.5418    0.0000 C   0  0  0  0  0  0           0  0  0
 19 14  1  0     0  0
  4  5  1  0     0  0
 18 20  2  0     0  0
  9 10  1  0     0  0
 17 21  1  0     0  0
  2  3  1  0     0  0
 21 22  3  0     0  0
 10 11  1  0     0  0
 16 23  1  0     0  0
  5  6  2  0     0  0
 23 24  2  0     0  0
 10 12  2  0     0  0
 24 25  1  0     0  0
  6  1  1  0     0  0
 25 26  2  0     0  0
  5 13  1  0     0  0
 26 27  1  0     0  0
  1  2  2  0     0  0
 27 28  2  0     0  0
 28 23  1  0     0  0
  4 14  1  0     0  0
 24 29  1  0     0  0
  2  7  1  0     0  0
 27 30  1  0     0  0
 14 15  2  0     0  0
 30 31  1  0     0  0
  3  4  2  0     0  0
 30 32  1  0     0  0
 15 16  1  0     0  0
 30 33  1  0     0  0
  6  8  1  0     0  0
  9 34  1  0     0  0
 11 35  1  0     0  0
 16 17  2  0     0  0
 17 18  1  0     0  0
  8  9  1  0     0  0
 18 19  1  0     0  0
 11 39  1  0     0  0
 35 36  1  0     0  0
 36 37  1  0     0  0
 37 38  1  0     0  0
 38 39  1  0     0  0
M  END