
  SciTegic01161211252D

 35 35  0  0  0  0            999 V2000
   -1.0458    0.3250    0.0000 C   0  0  1  0  0  0
   -1.7625    0.7375    0.0000 C   0  0
    1.1000    0.7375    0.0000 C   0  0  1  0  0  0
    1.8167    0.3250    0.0000 C   0  0
   -0.3250    0.7375    0.0000 C   0  0  1  0  0  0
   -2.4833    0.3250    0.0000 N   0  0
    2.5375    0.7375    0.0000 N   0  0
    0.3792    0.3250    0.0000 C   0  0  1  0  0  0
   -3.2000    0.7375    0.0000 C   0  0
    3.2542    0.3250    0.0000 C   0  0
   -1.0458   -0.5000    0.0000 O   0  0
   -3.9208    0.3250    0.0000 C   0  0  2  0  0  0
    3.9792    0.7375    0.0000 C   0  0  2  0  0  0
    1.1000    1.5708    0.0000 O   0  0
   -1.7625    1.5708    0.0000 O   0  0
    1.8167   -0.5000    0.0000 O   0  0
   -3.2000    1.5708    0.0000 O   0  0
    3.2542   -0.5000    0.0000 O   0  0
   -0.3250    1.5708    0.0000 O   0  0
    0.3792   -0.5000    0.0000 O   0  0
   -0.6458   -1.2125    0.0000 C   0  0
   -3.9208   -0.5000    0.0000 C   0  0
    3.9792    1.5708    0.0000 C   0  0
    0.1625   -2.6250    0.0000 C   0  0
    0.5750   -3.3375    0.0000 Br  0  0
    0.1625   -1.2125    0.0000 C   0  0
   -1.0625   -1.9125    0.0000 C   0  0
   -0.6500   -2.6167    0.0000 C   0  0
    0.5792   -1.9125    0.0000 C   0  0
   -4.6458    0.7375    0.0000 C   0  0
    4.7000    0.3250    0.0000 C   0  0
   -4.6458   -0.9167    0.0000 C   0  0
   -3.2000   -0.9167    0.0000 C   0  0
    3.2542    1.9875    0.0000 C   0  0
    4.7000    1.9875    0.0000 C   0  0
  2  1  1  0
  3  8  1  0
  4  3  1  0
  5  1  1  0
  6  2  1  0
  7  4  1  0
  8  5  1  0
  9  6  1  0
 10  7  1  0
  1 11  1  1
 12  9  1  0
 13 10  1  0
  3 14  1  1
 15  2  2  0
 16  4  2  0
 17  9  2  0
 18 10  2  0
  5 19  1  6
  8 20  1  6
 21 11  1  0
 12 22  1  6
 13 23  1  6
 24 28  2  0
 25 24  1  0
 26 21  1  0
 27 21  2  0
 28 27  1  0
 29 26  2  0
 30 12  1  0
 31 13  1  0
 32 22  1  0
 33 22  1  0
 34 23  1  0
 35 23  1  0
 29 24  1  0
M  END