
  SciTegic04191613082D

 28 30  0  0  0  0            999 V2000
    9.9944    5.5827    0.0000 C   0  0
    8.5244    5.2803    0.0000 C   0  0
    7.5257    6.3996    0.0000 C   0  0
    6.0571    6.0943    0.0000 C   0  0
    5.5870    4.6698    0.0000 C   0  0
    6.5858    3.5506    0.0000 C   0  0
    8.0544    3.8558    0.0000 C   0  0
   10.3724    6.7216    0.0000 O   0  0
   10.9920    4.4614    0.0000 N   0  0
    3.6500    2.9355    0.0000 C   0  0
    2.1812    2.6271    0.0000 C   0  0
    4.4505    2.0415    0.0000 O   0  0
    4.1182    4.3614    0.0000 N   0  0
    1.7138   -1.2033    0.0000 S   0  0
    2.5889    0.0182    0.0000 C   0  0
    1.7138    1.2033    0.0000 N   0  0
    0.2917    0.7475    0.0000 C   0  0
    0.2917   -0.7475    0.0000 C   0  0
   -1.0028    1.5132    0.0000 C   0  0
   -2.3155    0.7475    0.0000 C   0  0
   -2.3155   -0.7475    0.0000 C   0  0
   -1.0028   -1.5132    0.0000 C   0  0
    3.7889    0.0269    0.0000 O   0  0
   -3.3560    1.3452    0.0000 Cl  0  0
   12.4621    4.7638    0.0000 S   0  0
   13.6373    5.0062    0.0000 C   0  0
   13.2597    3.8673    0.0000 O   0  0
   12.8400    5.9027    0.0000 O   0  0
  1  2  1  0
  2  3  1  0
  3  4  2  0
  4  5  1  0
  5  6  2  0
  6  7  1  0
  2  7  2  0
  1  8  2  0
  1  9  1  0
 10 11  1  0
 10 12  2  0
 10 13  1  0
 14 15  1  0
 15 16  1  0
 16 17  1  0
 17 18  1  0
 14 18  1  0
 19 20  1  0
 20 21  2  0
 21 22  1  0
 18 22  2  0
 17 19  2  0
 15 23  2  0
 11 16  1  0
  5 13  1  0
 20 24  1  0
  9 25  1  0
 25 26  1  0
 25 27  2  0
 25 28  2  0
M  END