
  SciTegic06051315212D

 17 19  0  0  0  0            999 V2000
   39.6860  -15.9435    0.0000 N   0  0
   38.9725  -15.5349    0.0000 C   0  0
   40.3995  -15.5308    0.0000 C   0  0
   40.3995  -14.7094    0.0000 C   0  0
   39.6860  -14.3008    0.0000 C   0  0
   38.9725  -14.7094    0.0000 C   0  0
   38.2631  -14.3008    0.0000 C   0  0
   37.5495  -14.7094    0.0000 C   0  0
   37.5495  -15.5349    0.0000 C   0  0
   38.2631  -15.9435    0.0000 C   0  0
   41.1099  -15.9358    0.0000 C   0  0
   41.8177  -15.5252    0.0000 C   0  0
   42.5251  -15.9328    0.0000 C   0  0
   42.5259  -16.7509    0.0000 C   0  0
   41.8134  -17.1596    0.0000 C   0  0
   41.1089  -16.7496    0.0000 C   0  0
   41.1065  -14.2996    0.0000 C   0  0
 10  2  1  0
  2  6  2  0
  2  1  1  0
  1  3  2  0
  3  4  1  0
  4  5  2  0
  5  6  1  0
  6  7  1  0
  7  8  2  0
  8  9  1  0
  9 10  2  0
 11 12  2  0
 12 13  1  0
 13 14  2  0
 14 15  1  0
 15 16  2  0
 16 11  1  0
  3 11  1  0
  4 17  1  0
M  END