
  SciTegic01161211262D

 30 32  0  0  0  0            999 V2000
   -3.6740  -14.0669    0.0000 C   0  0
   -3.6756  -12.4141    0.0000 C   0  0
   -2.9608  -12.8235    0.0000 C   0  0
   -2.9576  -13.6562    0.0000 C   0  0
   -2.2388  -14.0675    0.0000 O   0  0
   -1.5186  -13.6506    0.0000 C   0  0
   -1.5218  -12.8179    0.0000 C   0  0  1  0  0  0
   -2.2452  -12.4020    0.0000 O   0  0
   -0.8085  -12.4033    0.0000 C   0  0
   -0.0928  -12.8138    0.0000 N   0  0
    0.6205  -12.3992    0.0000 C   0  0
    1.3362  -12.8097    0.0000 C   0  0
    2.0495  -12.3951    0.0000 O   0  0
    2.7652  -12.8056    0.0000 C   0  0
    2.7625  -13.6295    0.0000 C   0  0
    3.4774  -14.0399    0.0000 C   0  0
    4.1917  -13.6252    0.0000 C   0  0
    4.1866  -12.7960    0.0000 C   0  0
    3.4712  -12.3894    0.0000 C   0  0
    3.4647  -11.5644    0.0000 O   0  0
    2.0479  -14.0418    0.0000 O   0  0
    2.0475  -14.8668    0.0000 C   0  0
    4.1759  -11.1462    0.0000 C   0  0
   -4.3883  -13.6541    0.0000 C   0  0
   -4.3888  -12.8313    0.0000 C   0  0
   -5.0976  -12.4227    0.0000 C   0  0
   -5.8105  -12.8322    0.0000 C   0  0
   -5.8100  -13.6549    0.0000 C   0  0
   -5.0966  -14.0681    0.0000 C   0  0
   -0.3580  -11.9863    0.0000 Cl  0  0
  3  2  2  0
 13 14  1  0
  2 25  1  0
 14 15  2  0
  3  8  1  0
 15 16  1  0
  4  5  1  0
 16 17  2  0
  5  6  1  0
 17 18  1  0
  6  7  1  0
 18 19  2  0
 19 14  1  0
  7  8  1  0
 19 20  1  0
  3  4  1  0
 15 21  1  0
  7  9  1  1
 21 22  1  0
 20 23  1  0
 24 25  2  0
  9 10  1  0
 24  1  1  0
 10 11  1  0
  1  4  2  0
 11 12  1  0
 24 29  1  0
 25 26  1  0
 26 27  1  0
 27 28  1  0
 28 29  1  0
 12 13  1  0
M  END