
          05080814042D 1   1.00000     0.00000     0

 36 41  0     1  0            999 V2000
    6.4361   -9.9515    0.0000 C   0  0  0  0  0  0           0  0  0
    6.4349  -10.7773    0.0000 C   0  0  0  0  0  0           0  0  0
    7.1483  -11.1893    0.0000 C   0  0  0  0  0  0           0  0  0
    7.1465   -9.5395    0.0000 C   0  0  0  0  0  0           0  0  0
    7.8605   -9.9479    0.0000 C   0  0  0  0  0  0           0  0  0
    7.8639  -10.7792    0.0000 C   0  0  0  0  0  0           0  0  0
    8.5817  -11.1898    0.0000 C   0  0  0  0  0  0           0  0  0
    8.5749   -9.5269    0.0000 C   0  0  0  0  0  0           0  0  0
    9.2973   -9.9420    0.0000 C   0  0  2  0  0  0           0  0  0
    9.2983  -10.7751    0.0000 C   0  0  2  0  0  0           0  0  0
   10.0164  -11.1884    0.0000 N   0  0  3  0  0  0           0  0  0
   10.7380  -10.7733    0.0000 C   0  0  0  0  0  0           0  0  0
   10.7369   -9.9401    0.0000 C   0  0  1  0  0  0           0  0  0
   10.0143   -9.5222    0.0000 C   0  0  0  0  0  0           0  0  0
   10.0163  -12.0118    0.0000 C   0  0  0  0  0  0           0  0  0
   11.4499   -9.5282    0.0000 C   0  0  0  0  0  0           0  0  0
   12.1632   -9.9397    0.0000 N   0  0  3  0  0  0           0  0  0
   11.4497   -8.7048    0.0000 O   0  0  0  0  0  0           0  0  0
   12.1576  -10.7679    0.0000 C   0  0  0  0  0  0           0  0  0
   12.8667  -11.1793    0.0000 C   0  0  0  0  0  0           0  0  0
   13.5821  -10.7709    0.0000 N   0  0  3  0  0  0           0  0  0
   13.5839   -9.9466    0.0000 C   0  0  0  0  0  0           0  0  0
   12.8702   -9.5306    0.0000 C   0  0  0  0  0  0           0  0  0
    9.2902  -11.5983    0.0000 H   0  0  0  0  0  0           0  0  0
    9.2902   -9.1156    0.0000 H   0  0  0  0  0  0           0  0  0
   14.2937  -11.1851    0.0000 C   0  0  0  0  0  0           0  0  0
   14.2874  -12.0069    0.0000 C   0  0  0  0  0  0           0  0  0
   14.9981  -12.4211    0.0000 C   0  0  0  0  0  0           0  0  0
   15.0025  -10.7738    0.0000 N   0  0  0  0  0  0           0  0  0
    7.1439   -8.7156    0.0000 O   0  0  0  0  0  0           0  0  0
    6.4296   -8.3061    0.0000 C   0  0  0  0  0  0           0  0  0
   16.4990  -10.9327    0.0000 N   0  0  0  0  0  0           0  0  0
   15.7140  -11.1841    0.0000 C   0  0  0  0  0  0           0  0  0
   15.7116  -12.0091    0.0000 C   0  0  0  0  0  0           0  0  0
   16.4961  -12.2650    0.0000 N   0  0  0  0  0  0           0  0  0
   16.9807  -11.5973    0.0000 S   0  0  0  0  0  0           0  0  0
 16 17  1  0     0  0
  7 10  1  0     0  0
 16 18  2  0     0  0
 17 19  1  0     0  0
  9  8  1  0     0  0
  9 10  1  0     0  0
  5  4  2  0     0  0
  4  1  1  0     0  0
  5  6  1  0     0  0
 17 23  1  0     0  0
 19 20  1  0     0  0
 20 21  1  0     0  0
 21 22  1  0     0  0
 22 23  1  0     0  0
 10 24  1  1     0  0
  2  3  1  0     0  0
  9 25  1  6     0  0
  3  6  2  0     0  0
 21 26  1  0     0  0
  9 14  1  0     0  0
 26 27  1  0     0  0
 10 11  1  0     0  0
 27 28  2  0     0  0
 28 34  1  0     0  0
 11 12  1  0     0  0
 33 29  1  0     0  0
 29 26  2  0     0  0
 12 13  1  0     0  0
 13 14  1  0     0  0
 30 31  1  0     0  0
  4 30  1  0     0  0
 33 34  1  0     0  0
  1  2  2  0     0  0
 11 15  1  0     0  0
  5  8  1  0     0  0
 13 16  1  1     0  0
  6  7  1  0     0  0
 32 33  2  0     0  0
 34 35  2  0     0  0
 35 36  1  0     0  0
 36 32  1  0     0  0
M  END