
  SciTegic02271514512D

 29 32  0  0  0  0            999 V2000
    9.6487   -2.6252    0.0000 C   0  0
   10.4657   -2.6464    0.0000 C   0  0
   10.8925   -1.9495    0.0000 N   0  0
   11.7094   -1.9707    0.0000 N   0  0
   12.1362   -1.2738    0.0000 C   0  0
   12.9531   -1.2950    0.0000 C   0  0
   11.7460   -0.5558    0.0000 O   0  0
   13.3432   -2.0131    0.0000 S   0  0
   14.1601   -2.0342    0.0000 C   0  0
   14.6534   -1.3876    0.0000 N   0  0
   14.6192   -2.7093    0.0000 S   0  0
   15.4026   -2.4771    0.0000 C   0  0
   15.4215   -1.6639    0.0000 C   0  0
   16.1341   -1.2753    0.0000 C   0  0
   16.8283   -1.6989    0.0000 C   0  0
   16.8054   -2.5152    0.0000 C   0  0
   16.0924   -2.9000    0.0000 C   0  0
    9.2600   -1.9056    0.0000 C   0  0
    8.4439   -1.8840    0.0000 C   0  0
    8.0163   -2.5814    0.0000 C   0  0
    9.2256   -3.3199    0.0000 C   0  0
    8.4127   -3.3000    0.0000 C   0  0
    7.9909   -3.9930    0.0000 C   0  0
    8.3807   -4.7063    0.0000 C   0  0
    9.1968   -4.7223    0.0000 C   0  0
    9.6150   -4.0287    0.0000 O   0  0
    9.6879   -1.2093    0.0000 O   0  0
    7.1739   -3.9739    0.0000 C   0  0
    9.5916   -5.4378    0.0000 O   0  0
  1  2  1  0
  2  3  2  0
  3  4  1  0
  4  5  1  0
  5  6  1  0
  5  7  2  0
  6  8  1  0
  8  9  1  0
  9 10  2  0
 10 13  1  0
 12 11  1  0
 11  9  1  0
 12 13  2  0
 13 14  1  0
 14 15  2  0
 15 16  1  0
 16 17  2  0
 17 12  1  0
  1 18  2  0
 18 19  1  0
 19 20  2  0
 20 22  1  0
 21  1  1  0
 21 22  2  0
 22 23  1  0
 23 24  2  0
 24 25  1  0
 25 26  1  0
 26 21  1  0
 18 27  1  0
 23 28  1  0
 25 29  2  0
M  END