
          11280715032D 1   1.00000     0.00000     0

 36 36  0     0  0            999 V2000
    8.4292   -3.7125    0.0000 C   0  0  3  0  0  0           0  0  0
    7.8292   -3.7167    0.0000 C   0  0  3  0  0  0           0  0  0
    8.7292   -4.2292    0.0000 C   0  0  3  0  0  0           0  0  0
    7.5250   -3.2042    0.0000 C   0  0  3  0  0  0           0  0  0
    9.3292   -4.2250    0.0000 C   0  0  3  0  0  0           0  0  0
    3.3250   -2.1917    0.0000 S   0  0  3  0  0  0           0  0  0
    6.9250   -3.2042    0.0000 C   0  0  3  0  0  0           0  0  0
    9.6375   -4.7417    0.0000 C   0  0  3  0  0  0           0  0  0
    5.7167   -2.1792    0.0000 C   0  0  0  0  0  0           0  0  0
    3.9250   -2.1917    0.0000 C   0  0  0  0  0  0           0  0  0
    6.0167   -2.6917    0.0000 N   0  0  0  0  0  0           0  0  0
    6.6167   -2.6917    0.0000 C   0  0  0  0  0  0           0  0  0
    3.3167   -2.7917    0.0000 O   0  0  0  0  0  0           0  0  0
    3.3167   -1.5917    0.0000 O   0  0  0  0  0  0           0  0  0
    8.7250   -3.1917    0.0000 F   0  0  0  0  0  0           0  0  0
    8.2792   -4.2917    0.0000 F   0  0  0  0  0  0           0  0  0
    7.5292   -4.2417    0.0000 F   0  0  0  0  0  0           0  0  0
    7.9792   -3.1375    0.0000 F   0  0  0  0  0  0           0  0  0
    8.4375   -4.7542    0.0000 F   0  0  0  0  0  0           0  0  0
    8.8792   -3.6500    0.0000 F   0  0  0  0  0  0           0  0  0
    5.1167   -2.1792    0.0000 C   0  0  0  0  0  0           0  0  0
    7.8167   -2.6792    0.0000 F   0  0  0  0  0  0           0  0  0
    7.3750   -3.7792    0.0000 F   0  0  0  0  0  0           0  0  0
    9.6292   -3.7042    0.0000 F   0  0  0  0  0  0           0  0  0
    9.1792   -4.8042    0.0000 F   0  0  0  0  0  0           0  0  0
    2.7250   -2.1875    0.0000 N   0  0  0  0  0  0           0  0  0
    6.0125   -1.6542    0.0000 O   0  0  0  0  0  0           0  0  0
    6.6292   -3.7292    0.0000 F   0  0  0  0  0  0           0  0  0
    7.0750   -2.6250    0.0000 F   0  0  0  0  0  0           0  0  0
    9.3417   -5.2667    0.0000 F   0  0  0  0  0  0           0  0  0
   10.2375   -4.7375    0.0000 F   0  0  0  0  0  0           0  0  0
   10.0542   -4.3167    0.0000 F   0  0  0  0  0  0           0  0  0
    4.2250   -2.7042    0.0000 C   0  0  0  0  0  0           0  0  0
    4.2167   -1.6667    0.0000 C   0  0  0  0  0  0           0  0  0
    4.8125   -1.6667    0.0000 C   0  0  0  0  0  0           0  0  0
    4.8167   -2.7042    0.0000 C   0  0  0  0  0  0           0  0  0
  2  1  1  0     0  0
  3  1  1  0     0  0
  4  2  1  0     0  0
  5  3  1  0     0  0
  6 10  1  0     0  0
  7  4  1  0     0  0
  8  5  1  0     0  0
  9 11  1  0     0  0
 10 33  2  0     0  0
 11 12  1  0     0  0
 12  7  1  0     0  0
 13  6  2  0     0  0
 14  6  2  0     0  0
 15  1  1  0     0  0
 16  1  1  0     0  0
 17  2  1  0     0  0
 18  2  1  0     0  0
 19  3  1  0     0  0
 20  3  1  0     0  0
 21  9  1  0     0  0
 22  4  1  0     0  0
 23  4  1  0     0  0
 24  5  1  0     0  0
 25  5  1  0     0  0
 26  6  1  0     0  0
 27  9  2  0     0  0
 28  7  1  0     0  0
 29  7  1  0     0  0
 30  8  1  0     0  0
 31  8  1  0     0  0
 32  8  1  0     0  0
 33 36  1  0     0  0
 34 35  2  0     0  0
 35 21  1  0     0  0
 36 21  2  0     0  0
 10 34  1  0     0  0
M  END