
  SciTegic04091415032D

 39 42  0  0  0  0            999 V2000
    6.8869   -7.8128    0.0000 C   0  0
    6.8858   -8.6365    0.0000 C   0  0
    7.5980   -9.0496    0.0000 C   0  0
    7.5962   -7.4039    0.0000 C   0  0
    8.3089   -7.8092    0.0000 C   0  0
    8.3097   -8.6323    0.0000 C   0  0
    9.0223   -9.0435    0.0000 N   0  0
    9.7347   -8.6286    0.0000 C   0  0
    9.7300   -7.8023    0.0000 C   0  0
    9.0168   -7.3990    0.0000 C   0  0
    6.1790   -7.4002    0.0000 C   0  0
    9.0124   -6.5777    0.0000 C   0  0
    9.7221   -6.1612    0.0000 O   0  0
    8.2984   -6.1687    0.0000 O   0  0
   10.4440   -9.0386    0.0000 C   0  0
   10.4472   -9.8599    0.0000 N   0  0
   11.1543   -8.6231    0.0000 O   0  0
   11.1606  -10.2657    0.0000 C   0  0  2  0  0  0
   11.1638  -11.0870    0.0000 C   0  0
   11.8709   -9.8544    0.0000 C   0  0
   12.5843  -10.2602    0.0000 C   0  0
   11.8772  -11.4970    0.0000 O   0  0
   10.4577  -11.5025    0.0000 O   0  0
   11.8804  -12.3183    0.0000 C   0  0
   12.5843  -11.0786    0.0000 C   0  0
   13.2969  -11.4885    0.0000 C   0  0
   14.0081  -11.0729    0.0000 C   0  0
   14.0023  -10.2474    0.0000 C   0  0
   13.2892   -9.8453    0.0000 C   0  0
   14.7221  -11.4820    0.0000 O   0  0
    6.1878   -6.5792    0.0000 C   0  0
    5.4807   -6.1625    0.0000 C   0  0
    4.7704   -6.5699    0.0000 C   0  0
    4.7676   -7.3941    0.0000 C   0  0
    5.4711   -7.8029    0.0000 C   0  0
    4.0544   -7.8004    0.0000 C   0  0
    3.3439   -7.3896    0.0000 F   0  0
    4.0518   -8.6217    0.0000 F   0  0
    3.3389   -8.2049    0.0000 F   0  0
  1  2  2  0
  2  3  1  0
  3  6  2  0
  5  4  2  0
  4  1  1  0
  5  6  1  0
  6  7  1  0
  7  8  2  0
  8  9  1  0
  9 10  2  0
 10  5  1  0
  1 11  1  0
 10 12  1  0
 12 13  2  0
 12 14  1  0
  8 15  1  0
 15 16  1  0
 15 17  2  0
 16 18  1  0
 18 19  1  1
 18 20  1  0
 20 21  1  0
 19 22  1  0
 19 23  2  0
 22 24  1  0
 21 25  2  0
 25 26  1  0
 26 27  2  0
 27 28  1  0
 28 29  2  0
 29 21  1  0
 27 30  1  0
 11 31  2  0
 31 32  1  0
 32 33  2  0
 33 34  1  0
 34 35  2  0
 35 11  1  0
 34 36  1  0
 36 37  1  0
 36 38  1  0
 36 39  1  0
M  END