
          11280715402D 1   1.00000     0.00000     0

 36 39  0     0  0            999 V2000
   -0.6458   -0.4042    0.0000 N   0  0  0  0  0  0           0  0  0
   -0.2375   -0.8542    0.0000 C   0  0  0  0  0  0           0  0  0
   -1.1875   -0.6542    0.0000 C   0  0  0  0  0  0           0  0  0
   -1.1250   -1.2500    0.0000 O   0  0  0  0  0  0           0  0  0
   -0.5375   -1.3750    0.0000 C   0  0  0  0  0  0           0  0  0
    0.3542   -0.7875    0.0000 C   0  0  0  0  0  0           0  0  0
   -1.7083   -0.3542    0.0000 C   0  0  0  0  0  0           0  0  0
   -1.7083    0.2500    0.0000 C   0  0  0  0  0  0           0  0  0
   -1.1958    0.5583    0.0000 C   0  0  0  0  0  0           0  0  0
   -1.1958    1.1583    0.0000 C   0  0  0  0  0  0           0  0  0
    0.8792    1.1583    0.0000 C   0  0  0  0  0  0           0  0  0
   -0.6750    1.4583    0.0000 C   0  0  0  0  0  0           0  0  0
    0.6000   -0.2417    0.0000 O   0  0  0  0  0  0           0  0  0
    0.8875    0.5583    0.0000 O   0  0  0  0  0  0           0  0  0
    0.7125   -1.2750    0.0000 N   0  0  0  0  0  0           0  0  0
   -0.1583    1.1583    0.0000 C   0  0  0  0  0  0           0  0  0
    0.3625    1.4583    0.0000 C   0  0  0  0  0  0           0  0  0
    1.4042    1.4625    0.0000 O   0  0  0  0  0  0           0  0  0
   -2.2333    0.5500    0.0000 C   0  0  0  0  0  0           0  0  0
   -2.2333   -0.6542    0.0000 C   0  0  0  0  0  0           0  0  0
   -1.7208    1.4500    0.0000 C   0  0  0  0  0  0           0  0  0
    3.2042   -2.0500    0.0000 C   0  0  3  0  0  0           0  0  0
   -0.6833    2.0583    0.0000 C   0  0  0  0  0  0           0  0  0
    1.3042   -1.2042    0.0000 C   0  0  0  0  0  0           0  0  0
    2.6125   -2.1125    0.0000 C   0  0  0  0  0  0           0  0  0
    3.4417   -1.5000    0.0000 C   0  0  0  0  0  0           0  0  0
    3.5542   -2.5375    0.0000 C   0  0  0  0  0  0           0  0  0
    1.6625   -1.6917    0.0000 C   0  0  0  0  0  0           0  0  0
    2.2542   -1.6292    0.0000 C   0  0  0  0  0  0           0  0  0
   -2.7458    0.2500    0.0000 C   0  0  0  0  0  0           0  0  0
   -2.7458   -0.3542    0.0000 C   0  0  0  0  0  0           0  0  0
   -1.7208    2.0458    0.0000 C   0  0  0  0  0  0           0  0  0
   -1.2000    2.3583    0.0000 C   0  0  0  0  0  0           0  0  0
    4.1542   -2.4750    0.0000 C   0  0  0  0  0  0           0  0  0
    4.0417   -1.4375    0.0000 C   0  0  0  0  0  0           0  0  0
    4.4000   -1.9250    0.0000 C   0  0  0  0  0  0           0  0  0
  2  1  1  0     0  0
  3  1  2  0     0  0
  4  3  1  0     0  0
  5  2  2  0     0  0
  6  2  1  0     0  0
  7  3  1  0     0  0
  8  7  1  0     0  0
  9  8  1  0     0  0
 10  9  1  0     0  0
 11 17  1  0     0  0
 12 10  2  0     0  0
 13  6  2  0     0  0
 14 11  2  0     0  0
 15  6  1  0     0  0
 16 12  1  0     0  0
 17 16  1  0     0  0
 18 11  1  0     0  0
 19  8  2  0     0  0
 20  7  2  0     0  0
 21 10  1  0     0  0
 22 25  1  0     0  0
 23 12  1  0     0  0
 24 15  1  0     0  0
 25 29  1  0     0  0
 26 22  1  0     0  0
 27 22  1  0     0  0
 28 24  1  0     0  0
 29 28  1  0     0  0
 30 31  2  0     0  0
 31 20  1  0     0  0
 32 21  2  0     0  0
 33 32  1  0     0  0
 34 27  1  0     0  0
 35 26  1  0     0  0
 36 34  1  0     0  0
  5  4  1  0     0  0
 30 19  1  0     0  0
 33 23  2  0     0  0
 36 35  1  0     0  0
M  END