
  SciTegic02231516502D

 26 29  0  0  0  0            999 V2000
    6.3757   -2.5270    0.0000 N   0  0
    4.9467   -2.5270    0.0000 C   0  0
    5.6612   -2.1145    0.0000 C   0  0
    6.3757   -3.3520    0.0000 C   0  0
    4.2322   -2.1145    0.0000 C   0  0
    5.6612   -3.7645    0.0000 N   0  0
    2.9265   -1.8369    0.0000 N   0  0
    9.3198   -5.8224    0.0000 N   0  0
    4.9467   -3.3520    0.0000 C   0  0
    3.4786   -2.4500    0.0000 N   0  0
    3.3390   -1.1225    0.0000 N   0  0
    7.0901   -2.1145    0.0000 C   0  0
   10.1267   -5.9940    0.0000 C   0  0
    4.1460   -1.2940    0.0000 N   0  0
    7.0901   -3.7645    0.0000 C   0  0
    9.2335   -5.0020    0.0000 C   0  0
    9.9872   -4.6664    0.0000 S   0  0
   10.5392   -5.2795    0.0000 C   0  0
    7.8046   -2.5270    0.0000 C   0  0
    7.8046   -3.3520    0.0000 C   0  0
    5.6612   -1.2895    0.0000 O   0  0
   10.4623   -6.7476    0.0000 C   0  0
    8.5191   -4.5895    0.0000 C   0  0
    8.5191   -3.7645    0.0000 C   0  0
   11.2828   -6.8339    0.0000 C   0  0
    9.9774   -7.4151    0.0000 C   0  0
  2  3  1  0
  3  1  1  0
  4  1  1  0
  5  2  1  0
  6  4  2  0
  7 10  1  0
  8 16  2  0
  9  6  1  0
 10  5  1  0
 11 14  1  0
 12  1  1  0
 13  8  1  0
 14  5  2  0
 15  4  1  0
 16 23  1  0
 17 16  1  0
 18 17  1  0
 19 12  2  0
 20 19  1  0
 21  3  2  0
 22 13  1  0
 23 24  1  0
 24 20  1  0
 25 22  1  0
 26 22  1  0
 15 20  2  0
  9  2  2  0
 11  7  2  0
 13 18  2  0
M  END