
  SciTegic12201609252D

 29 30  0  0  0  0            999 V2000
    1.0394   -3.6005    0.0000 O   0  0
    0.0000   -3.0008    0.0000 S   0  0
    0.0006   -4.2008    0.0000 O   0  0
    1.0388    3.6015    0.0000 O   0  0
    0.0000    3.0008    0.0000 S   0  0
   -1.0394    3.6005    0.0000 O   0  0
    1.2990   -0.7500    0.0000 C   0  0
    1.2990    0.7500    0.0000 C   0  0
    0.0000    1.5000    0.0000 C   0  0
   -1.2990    0.7500    0.0000 C   0  0
   -1.2990   -0.7500    0.0000 C   0  0
    0.0000   -1.5000    0.0000 C   0  0
   -0.0006    4.2008    0.0000 N   0  0
   -1.2993   -3.7521    0.0000 C   0  0
   -1.2993   -5.2529    0.0000 C   0  0
   -2.5985   -6.0041    0.0000 C   0  0
   -2.3383   -1.3500    0.0000 F   0  0
    2.5973   -1.5031    0.0000 N   0  0
    2.3383    1.3500    0.0000 F   0  0
   -2.3383    1.3500    0.0000 F   0  0
    2.5951   -3.0039    0.0000 C   0  0
   -2.6007   -7.5042    0.0000 C   0  0
   -3.9008   -8.2523    0.0000 C   0  0
   -5.1988   -7.5005    0.0000 C   0  0
   -5.1967   -6.0005    0.0000 C   0  0
   -3.8966   -5.2523    0.0000 C   0  0
    3.6331   -3.6060    0.0000 C   0  0
    1.5548   -3.6021    0.0000 C   0  0
    2.5928   -4.2039    0.0000 C   0  0
  2  1  2  0
  3  2  2  0
  5  4  2  0
  6  5  2  0
  7  8  2  0
  8  9  1  0
  9 10  2  0
 10 11  1  0
 11 12  2  0
 12  7  1  0
  9  5  1  0
  5 13  1  0
 12  2  1  0
  2 14  1  0
 14 15  1  0
 15 16  1  0
 11 17  1  0
  7 18  1  0
  8 19  1  0
 10 20  1  0
 18 21  1  0
 16 22  2  0
 22 23  1  0
 23 24  2  0
 24 25  1  0
 25 26  2  0
 26 16  1  0
 21 27  1  0
 21 28  1  0
 21 29  1  0
M  END