
  SciTegic10311316212D

 25 28  0  0  0  0            999 V2000
   25.8020   -6.6448    0.0000 C   0  0
   25.8009   -7.4643    0.0000 C   0  0
   26.5089   -7.8733    0.0000 C   0  0
   26.5071   -6.2359    0.0000 C   0  0
   27.2157   -6.6412    0.0000 C   0  0
   27.2160   -7.4598    0.0000 C   0  0
   27.9947   -7.7126    0.0000 S   0  0
   28.4757   -7.0501    0.0000 C   0  0
   27.9942   -6.3880    0.0000 C   0  0
   25.0974   -7.8715    0.0000 N   0  0
   24.3511   -7.5386    0.0000 C   0  0
   23.8038   -8.1454    0.0000 N   0  0
   24.2119   -8.8535    0.0000 N   0  0
   25.0113   -8.6841    0.0000 C   0  0
   25.6169   -9.2281    0.0000 C   0  0
   25.4449  -10.0281    0.0000 C   0  0
   26.0510  -10.5751    0.0000 C   0  0
   26.8294  -10.3233    0.0000 C   0  0
   26.9982   -9.5194    0.0000 C   0  0
   26.3907   -8.9759    0.0000 C   0  0
   24.1818   -6.7391    0.0000 S   0  0
   29.2908   -7.0477    0.0000 C   0  0
   29.6997   -7.7552    0.0000 O   0  0
   29.6992   -6.3398    0.0000 O   0  0
   27.7746   -9.2647    0.0000 Br  0  0
  1  2  2  0
  2  3  1  0
  3  6  2  0
  5  4  2  0
  4  1  1  0
  5  6  1  0
  6  7  1  0
  7  8  1  0
  8  9  2  0
  9  5  1  0
 10 11  1  0
 11 12  2  0
 12 13  1  0
 13 14  2  0
 14 10  1  0
  2 10  1  0
 15 16  2  0
 16 17  1  0
 17 18  2  0
 18 19  1  0
 19 20  2  0
 20 15  1  0
 14 15  1  0
 11 21  1  0
 22 23  1  0
 22 24  2  0
  8 22  1  0
 19 25  1  0
M  END