
  SciTegic01161211212D

 20 22  0  0  0  0            999 V2000
    9.3215    0.5942    0.0000 C   0  0
    9.3203   -0.2308    0.0000 C   0  0
   10.0330   -0.6425    0.0000 C   0  0
   10.0312    1.0057    0.0000 C   0  0
   10.7445    0.5978    0.0000 C   0  0
   10.7479   -0.2283    0.0000 C   0  0
   11.4610   -0.6361    0.0000 C   0  0
   11.4543    1.0160    0.0000 C   0  0
   12.1720    0.6036    0.0000 C   0  0  2  0  0  0
   12.1779   -0.2242    0.0000 C   0  0  2  0  0  0
   12.9671   -0.4745    0.0000 C   0  0
   13.4490    0.1987    0.0000 C   0  0
   12.9576    0.8650    0.0000 N   0  0
   12.1646    1.4291    0.0000 H   0  0
   12.1729   -1.0428    0.0000 H   0  0
   13.3479    1.5881    0.0000 C   0  0
   14.1702    1.6113    0.0000 C   0  0
   14.5611    2.3351    0.0000 C   0  0
   10.0336   -1.4651    0.0000 O   0  0
    9.3215   -1.8768    0.0000 C   0  0
  5  4  2  0
  4  1  1  0
  5  6  1  0
  2  3  1  0
 10 11  1  0
 11 12  1  0
 12 13  1  0
 13  9  1  0
  3  6  2  0
  9 14  1  6
  1  2  2  0
 10 15  1  1
  5  8  1  0
 13 16  1  0
  6  7  1  0
 16 17  1  0
  7 10  1  0
 17 18  1  0
  9  8  1  0
  3 19  1  0
  9 10  1  0
 19 20  1  0
M  END