
  SciTegic03291108592D

 26 28  0  0  0  0            999 V2000
   -1.8606    0.6936    0.0000 Cl  0  0
   -1.8606    3.1686    0.0000 O   0  0
    0.9972    4.8186    0.0000 O   0  5
   -0.4317    4.8186    0.0000 O   0  0
    0.2828    1.1061    0.0000 N   0  0
   -1.1462    1.9311    0.0000 N   0  0
    0.2828    4.4061    0.0000 N   0  3
    0.2828   -0.5439    0.0000 N   0  0
    0.2828    1.9311    0.0000 C   0  0
   -0.4317    2.3436    0.0000 C   0  0
    0.2828    3.5811    0.0000 C   0  0
   -0.4317    3.1686    0.0000 C   0  0
    0.9972    2.3436    0.0000 C   0  0
   -1.8606    2.3436    0.0000 C   0  0
   -2.5751    1.9311    0.0000 C   0  0
    0.9972    3.1686    0.0000 C   0  0
    0.9972    0.6936    0.0000 C   0  0
   -0.4317    0.6936    0.0000 C   0  0
   -2.5751    1.1061    0.0000 C   0  0
   -3.2896    2.3436    0.0000 C   0  0
    0.9972   -0.1314    0.0000 C   0  0
   -0.4317   -0.1314    0.0000 C   0  0
   -3.2896    0.6936    0.0000 C   0  0
   -4.0040    1.9311    0.0000 C   0  0
   -4.0040    1.1061    0.0000 C   0  0
    0.2828   -1.3689    0.0000 C   0  0
  1 19  1  0
  2 14  2  0
  3  7  1  0
  4  7  2  0
  5  9  1  0
  5 17  1  0
  5 18  1  0
  6 10  1  0
  6 14  1  0
  7 11  1  0
  8 21  1  0
  8 22  1  0
  8 26  1  0
  9 10  1  0
  9 13  2  0
 10 12  2  0
 11 12  1  0
 11 16  2  0
 13 16  1  0
 14 15  1  0
 15 19  1  0
 15 20  2  0
 17 21  1  0
 18 22  1  0
 19 23  2  0
 20 24  1  0
 23 25  1  0
 24 25  2  0
M  CHG  2   3  -1   7   1
M  END