
          11280715122D 1   1.00000     0.00000     0

 32 35  0     0  0            999 V2000
    4.7042   -3.5417    0.0000 C   0  0  0  0  0  0           0  0  0
    4.7042   -4.3667    0.0000 C   0  0  0  0  0  0           0  0  0
    7.7125   -8.7000    0.0000 C   0  0  0  0  0  0           0  0  0
    7.1792   -9.9292    0.0000 N   0  0  0  0  0  0           0  0  0
    7.8917   -9.5042    0.0000 N   0  0  0  0  0  0           0  0  0
    6.5667   -9.3917    0.0000 N   0  0  0  0  0  0           0  0  0
    3.9875   -4.7792    0.0000 N   0  0  0  0  0  0           0  0  0
    6.8917   -8.6250    0.0000 N   0  0  0  0  0  0           0  0  0
    8.2625   -8.0792    0.0000 C   0  0  0  0  0  0           0  0  0
    5.4125   -4.7792    0.0000 N   0  0  3  0  0  0           0  0  0
    5.4250   -3.1167    0.0000 C   0  0  0  0  0  0           0  0  0
    8.2625   -7.2542    0.0000 C   0  0  0  0  0  0           0  0  0
    3.9875   -3.1292    0.0000 C   0  0  0  0  0  0           0  0  0
    7.5542   -6.8417    0.0000 C   0  0  0  0  0  0           0  0  0
    5.4125   -5.6042    0.0000 C   0  0  0  0  0  0           0  0  0
    5.4167   -2.2917    0.0000 O   0  0  0  0  0  0           0  0  0
    3.2750   -4.3667    0.0000 C   0  0  0  0  0  0           0  0  0
    7.5500   -6.0167    0.0000 C   0  0  0  0  0  0           0  0  0
    6.8375   -7.2542    0.0000 C   0  0  0  0  0  0           0  0  0
    6.1292   -6.0167    0.0000 C   0  0  0  0  0  0           0  0  0
    6.1417   -3.5292    0.0000 O   0  0  0  0  0  0           0  0  0
    3.2750   -3.5417    0.0000 C   0  0  0  0  0  0           0  0  0
    6.1250   -6.8417    0.0000 C   0  0  0  0  0  0           0  0  0
    6.8292   -5.6042    0.0000 C   0  0  0  0  0  0           0  0  0
    6.1250   -4.3667    0.0000 C   0  0  0  0  0  0           0  0  0
    8.9750   -8.4917    0.0000 C   0  0  0  0  0  0           0  0  0
    8.9750   -6.8417    0.0000 C   0  0  0  0  0  0           0  0  0
    2.5542   -3.1292    0.0000 C   0  0  0  0  0  0           0  0  0
    6.8292   -4.7792    0.0000 C   0  0  0  0  0  0           0  0  0
    9.6917   -8.0792    0.0000 C   0  0  0  0  0  0           0  0  0
    9.6875   -7.2542    0.0000 C   0  0  0  0  0  0           0  0  0
    7.5417   -4.3750    0.0000 C   0  0  0  0  0  0           0  0  0
  2  1  1  0     0  0
  3  9  1  0     0  0
  4  5  2  0     0  0
  5  3  1  0     0  0
  6  8  1  0     0  0
  7  2  2  0     0  0
  8  3  2  0     0  0
  9 12  2  0     0  0
 10  2  1  0     0  0
 11  1  1  0     0  0
 12 14  1  0     0  0
 13  1  2  0     0  0
 14 18  2  0     0  0
 15 10  1  0     0  0
 16 11  2  0     0  0
 17 22  2  0     0  0
 18 24  1  0     0  0
 19 23  2  0     0  0
 20 15  1  0     0  0
 21 11  1  0     0  0
 22 13  1  0     0  0
 23 20  1  0     0  0
 24 20  2  0     0  0
 25 10  1  0     0  0
 26  9  1  0     0  0
 27 12  1  0     0  0
 28 22  1  0     0  0
 29 25  1  0     0  0
 30 31  1  0     0  0
 31 27  2  0     0  0
 32 29  1  0     0  0
 17  7  1  0     0  0
 19 14  1  0     0  0
 26 30  2  0     0  0
  6  4  1  0     0  0
M  END