
  SciTegic05171617282D

 35 40  0  0  0  0            999 V2000
    3.8070   -6.4988    0.0000 F   0  0
    3.3443   -5.3916    0.0000 C   0  0
    1.8565   -5.2005    0.0000 C   0  0
    1.2781   -3.8165    0.0000 C   0  0
    2.1852   -2.6281    0.0000 C   0  0
    3.6753   -2.8147    0.0000 C   0  0
    4.2537   -4.1987    0.0000 C   0  0
    1.7138   -1.2033    0.0000 N   0  0
    2.5889    0.0182    0.0000 C   0  0
    1.7138    1.2033    0.0000 C   0  0
    0.2917    0.7475    0.0000 C   0  0
   -1.0028    1.5132    0.0000 C   0  0
   -2.3155    0.7475    0.0000 C   0  0
   -2.3155   -0.7475    0.0000 C   0  0
   -1.0028   -1.5132    0.0000 C   0  0
    0.2917   -0.7475    0.0000 C   0  0
   -3.6217    1.4865    0.0000 C   0  0
   -3.6319    2.6865    0.0000 O   0  0
   -4.9153    0.7255    0.0000 N   0  0
   -6.3235    1.1252    0.0000 C   0  0
   -6.6970   -0.3276    0.0000 C   0  0
   -5.2442   -0.7010    0.0000 C   0  0
   -7.9889   -1.0912    0.0000 N   0  0
   -9.3975   -0.6104    0.0000 C   0  0
  -10.5261   -1.5984    0.0000 C   0  0
  -10.2348   -3.0699    0.0000 N   0  0
   -8.8149   -3.5533    0.0000 C   0  0
   -7.6862   -2.5653    0.0000 C   0  0
  -11.3621   -4.0607    0.0000 C   0  0
  -12.4987   -3.6760    0.0000 O   0  0
  -11.0685   -5.5326    0.0000 C   0  0
  -12.0882   -6.6152    0.0000 N   0  0
  -11.3519   -7.9221    0.0000 C   0  0
   -9.8815   -7.6257    0.0000 C   0  0
   -9.7090   -6.1356    0.0000 S   0  0
  1  2  1  0
  2  3  2  0
  3  4  1  0
  4  5  2  0
  5  6  1  0
  6  7  2  0
  2  7  1  0
  5  8  1  0
  8  9  1  0
  9 10  2  0
 10 11  1  0
 11 12  2  0
 12 13  1  0
 13 14  2  0
 14 15  1  0
 15 16  2  0
  8 16  1  0
 11 16  1  0
 13 17  1  0
 17 18  2  0
 17 19  1  0
 19 20  1  0
 20 21  1  0
 21 22  1  0
 19 22  1  0
 21 23  1  0
 23 24  1  0
 24 25  1  0
 25 26  1  0
 26 27  1  0
 27 28  1  0
 23 28  1  0
 26 29  1  0
 29 30  2  0
 29 31  1  0
 31 32  2  0
 32 33  1  0
 33 34  2  0
 34 35  1  0
 31 35  1  0
M  END