
  CDK    9/16/09,9:46

 21 23  0  0  0  0  0  0  0  0999 V2000
   13.3371   -7.3498    0.0000 C   0  0  0  0  0  0  0  0  0  0  0  0
   13.3359   -8.1772    0.0000 C   0  0  0  0  0  0  0  0  0  0  0  0
   14.0486   -8.5899    0.0000 C   0  0  0  0  0  0  0  0  0  0  0  0
   14.0466   -6.9370    0.0000 C   0  0  0  0  0  0  0  0  0  0  0  0
   14.7647   -7.3458    0.0000 C   0  0  0  0  0  0  0  0  0  0  0  0
   14.7638   -8.1746    0.0000 C   0  0  0  0  0  0  0  0  0  0  0  0
   16.1969   -7.3474    0.0000 C   0  0  0  0  0  0  0  0  0  0  0  0
   15.4789   -6.9298    0.0000 C   0  0  0  0  0  0  0  0  0  0  0  0
   16.1959   -8.1761    0.0000 N   0  0  0  0  0  0  0  0  0  0  0  0
   15.4761   -8.5845    0.0000 C   0  0  0  0  0  0  0  0  0  0  0  0
   16.9016   -9.4202    0.0000 C   0  0  0  0  0  0  0  0  0  0  0  0
   16.9097   -8.5909    0.0000 C   0  0  0  0  0  0  0  0  0  0  0  0
   16.1818   -9.8287    0.0000 C   0  0  0  0  0  0  0  0  0  0  0  0
   15.4731   -9.4063    0.0000 C   0  0  0  0  0  0  0  0  0  0  0  0
   14.7552   -9.8088    0.0000 C   0  0  0  0  0  0  0  0  0  0  0  0
   14.7447  -10.6333    0.0000 C   0  0  0  0  0  0  0  0  0  0  0  0
   15.4580  -11.0539    0.0000 C   0  0  0  0  0  0  0  0  0  0  0  0
   16.1731  -10.6489    0.0000 C   0  0  0  0  0  0  0  0  0  0  0  0
   12.6225   -6.9379    0.0000 O   0  0  0  0  0  0  0  0  0  0  0  0
   16.9036   -7.7577    0.0000 C   0  0  0  0  0  0  0  0  0  0  0  0
   14.0428   -6.1123    0.0000 Cl  0  0  0  0  0  0  0  0  0  0  0  0
  5  6  1  0  0  0  0 
  9 12  1  0  0  0  0 
 10 14  1  0  0  0  0 
 13 11  1  0  0  0  0 
 11 12  1  0  0  0  0 
  2  3  1  0  0  0  0 
  3  6  2  0  0  0  0 
 13 14  2  0  0  0  0 
  1  2  2  0  0  0  0 
 14 15  1  0  0  0  0 
  5  8  1  0  0  0  0 
 15 16  2  0  0  0  0 
  6 10  1  0  0  0  0 
 16 17  1  0  0  0  0 
  9  7  1  0  0  0  0 
 17 18  2  0  0  0  0 
 18 13  1  0  0  0  0 
  7  8  1  0  0  0  0 
  1 19  1  0  0  0  0 
  5  4  2  0  0  0  0 
  9 20  1  0  0  0  0 
  4  1  1  0  0  0  0 
  4 21  1  0  0  0  0 
M  END