
  SciTegic05071317032D

 33 32  0  0  0  0            999 V2000
    1.9319   -3.3791    0.0000 C   0  0
    1.9308   -4.2065    0.0000 C   0  0
    2.6456   -4.6194    0.0000 C   0  0
    3.3620   -4.2060    0.0000 C   0  0
    3.3591   -3.3755    0.0000 C   0  0
    2.6437   -2.9664    0.0000 C   0  0
    4.0721   -2.9603    0.0000 O   0  0
    4.7882   -3.3701    0.0000 C   0  0
    5.5010   -2.9550    0.0000 C   0  0
    6.2171   -3.3648    0.0000 C   0  0
    6.9299   -2.9495    0.0000 C   0  0
    7.6460   -3.3593    0.0000 C   0  0
    8.3589   -2.9442    0.0000 C   0  0
    9.0750   -3.3540    0.0000 C   0  0
    9.7878   -2.9388    0.0000 C   0  0
   10.5039   -3.3486    0.0000 C   0  0
   11.2167   -2.9334    0.0000 N   0  0
   11.9326   -3.3454    0.0000 C   0  0
   12.6433   -2.9338    0.0000 C   0  0
   12.6446   -2.1084    0.0000 N   0  0
   11.9287   -1.6964    0.0000 C   0  0
   11.2116   -2.1098    0.0000 C   0  0
   13.3590   -1.6959    0.0000 C   0  0
   14.0735   -2.1084    0.0000 C   0  0
   14.7880   -1.6960    0.0000 C   0  0
   15.5024   -2.1085    0.0000 C   0  0
   16.2169   -1.6960    0.0000 N   0  0
   16.9314   -2.1085    0.0000 C   0  0
   16.2169   -0.8709    0.0000 C   0  0
   16.9314   -0.4584    0.0000 C   0  0
   15.5001   -0.4583    0.0000 O   0  0
   13.0409   -5.8359    0.0000 Cl  0  0
   14.7911   -5.4214    0.0000 Cl  0  0
  1  2  2  0
  2  3  1  0
  3  4  2  0
  4  5  1  0
  5  6  2  0
  6  1  1  0
  5  7  1  0
  7  8  1  0
  8  9  1  0
  9 10  1  0
 10 11  1  0
 11 12  1  0
 12 13  1  0
 13 14  1  0
 14 15  1  0
 15 16  1  0
 16 17  1  0
 17 18  1  0
 17 22  1  0
 18 19  1  0
 19 20  1  0
 20 21  1  0
 21 22  1  0
 20 23  1  0
 23 24  1  0
 24 25  1  0
 25 26  1  0
 26 27  1  0
 27 28  1  0
 27 29  1  0
 29 30  1  0
 29 31  2  0
M  END