
  SciTegic06051313552D

 38 42  0  0  0  0            999 V2000
    3.2921  -14.9199    0.0000 C   0  0
    3.2910  -15.7394    0.0000 C   0  0
    3.9990  -16.1484    0.0000 C   0  0
    3.9972  -14.5110    0.0000 C   0  0
    5.4896  -14.6602    0.0000 C   0  0
    4.7058  -14.9163    0.0000 C   0  0
    4.7084  -15.7416    0.0000 C   0  0
    5.4947  -15.9928    0.0000 N   0  0
    5.9754  -15.3220    0.0000 N   0  0
    5.7517  -16.7686    0.0000 C   0  0
    5.3333  -17.4696    0.0000 C   0  0
    4.5185  -17.4551    0.0000 C   0  0
    4.0996  -18.1559    0.0000 C   0  0
    4.4977  -18.8705    0.0000 C   0  0
    5.3191  -18.8800    0.0000 C   0  0
    5.7343  -18.1786    0.0000 C   0  0
    5.7197  -19.5923    0.0000 C   0  0
    5.3032  -20.2954    0.0000 N   0  0
    5.7038  -21.0076    0.0000 C   0  0
    5.9113  -13.9602    0.0000 N   0  0
    6.7283  -13.9754    0.0000 S   0  0
    7.2149  -14.6318    0.0000 C   0  0
    6.7009  -13.1517    0.0000 O   0  0
    7.5097  -13.7323    0.0000 O   0  0
    6.9699  -15.4134    0.0000 C   0  0
    7.6362  -15.8882    0.0000 C   0  0
    8.2929  -15.3999    0.0000 C   0  0
    8.0302  -14.6250    0.0000 S   0  0
    9.0730  -15.6432    0.0000 Cl  0  0
    3.9906  -13.6980    0.0000 O   0  0
    3.2796  -13.2952    0.0000 C   0  0
    6.5209  -21.0168    0.0000 O   0  0
    5.2872  -21.7107    0.0000 C   0  0  2  0  0  0
    4.4708  -21.6993    0.0000 C   0  0
    4.0544  -22.3982    0.0000 O   0  0
    4.4515  -23.1129    0.0000 C   0  0
    5.2695  -23.1240    0.0000 C   0  0
    5.6905  -22.4206    0.0000 N   0  0
  1  2  2  0
  2  3  1  0
  3  7  2  0
  6  4  2  0
  4  1  1  0
  6  7  1  0
  5  6  1  0
  7  8  1  0
  8  9  1  0
  9  5  2  0
  8 10  1  0
 10 11  1  0
 11 12  2  0
 12 13  1  0
 13 14  2  0
 14 15  1  0
 15 16  2  0
 16 11  1  0
 15 17  1  0
 17 18  1  0
 18 19  1  0
  5 20  1  0
 20 21  1  0
 21 22  1  0
 21 23  2  0
 21 24  2  0
 25 26  1  0
 22 25  2  0
 26 27  2  0
 27 28  1  0
 28 22  1  0
 27 29  1  0
  4 30  1  0
 30 31  1  0
 19 32  2  0
 33 19  1  1
 33 34  1  0
 33 38  1  0
 34 35  1  0
 35 36  1  0
 36 37  1  0
 37 38  1  0
M  END