
  SciTegic01161211232D

 34 36  0  0  0  0            999 V2000
    4.9292   -5.8600    0.0000 C   0  0
    3.8912   -5.2578    0.0000 C   0  0
    3.8933   -3.7570    0.0000 C   0  0
    2.5951   -3.0039    0.0000 C   0  0
    2.5973   -1.5031    0.0000 C   0  0
    1.2990   -0.7500    0.0000 C   0  0
    1.2990    0.7500    0.0000 N   0  0
    0.0000    1.5000    0.0000 C   0  0
   -1.2990    0.7500    0.0000 C   0  0
   -2.5973    1.5031    0.0000 C   0  0
   -2.5956    2.7031    0.0000 O   0  0
   -3.6375    0.9049    0.0000 O   0  0
   -1.2990   -0.7500    0.0000 C   0  0
   -2.5972   -1.5031    0.0000 N   0  0
   -2.5951   -3.0039    0.0000 C   0  0
   -3.8933   -3.7570    0.0000 C   0  0
   -3.8934   -5.2570    0.0000 C   0  0
   -5.1924   -6.0071    0.0000 C   0  0
   -6.4914   -5.2571    0.0000 C   0  0
   -6.4915   -3.7571    0.0000 C   0  0
   -5.1925   -3.0071    0.0000 C   0  0
   -7.7911   -6.0075    0.0000 C   0  0
   -9.0891   -5.2556    0.0000 C   0  0
  -10.3893   -6.0035    0.0000 C   0  0
  -10.3916   -7.5035    0.0000 C   0  0
   -9.0937   -8.2556    0.0000 C   0  0
   -7.7935   -7.5076    0.0000 C   0  0
   -6.4950   -8.2600    0.0000 C   0  0
   -5.1417   -7.6433    0.0000 N   0  0
   -4.1415   -8.7611    0.0000 N   0  0
   -4.8956  -10.0578    0.0000 N   0  0
   -6.3618   -9.7413    0.0000 N   0  0
    0.0000   -1.5000    0.0000 N   0  0
    7.6894   -3.5270    0.0000 Cl  0  0
  1  2  1  0
  2  3  1  0
  3  4  1  0
  4  5  1  0
  5  6  1  0
  6  7  2  0
  7  8  1  0
  8  9  2  0
  9 10  1  0
 10 11  2  0
 10 12  1  0
  9 13  1  0
 13 14  1  0
 14 15  1  0
 15 16  1  0
 16 17  2  0
 17 18  1  0
 18 19  2  0
 19 20  1  0
 20 21  2  0
 21 16  1  0
 19 22  1  0
 22 23  2  0
 23 24  1  0
 24 25  2  0
 25 26  1  0
 26 27  2  0
 27 22  1  0
 27 28  1  0
 28 29  1  0
 29 30  2  0
 30 31  1  0
 31 32  1  0
 32 28  2  0
 13 33  2  0
 33  6  1  0
M  END