
  CDK    9/16/09,9:51

 27 31  0  0  0  0  0  0  0  0999 V2000
   13.3529    1.0705    0.0000 C   0  0  0  0  0  0  0  0  0  0  0  0
   14.0639    0.6547    0.0000 C   0  0  0  0  0  0  0  0  0  0  0  0
   14.7809    1.0633    0.0000 C   0  0  0  0  0  0  0  0  0  0  0  0
   14.7825    1.8919    0.0000 C   0  0  0  0  0  0  0  0  0  0  0  0
   15.4933    0.6483    0.0000 F   0  0  0  0  0  0  0  0  0  0  0  0
   13.3573    1.8896    0.0000 C   0  0  0  0  0  0  0  0  0  0  0  0
   14.0700    2.3032    0.0000 C   0  0  0  0  0  0  0  0  0  0  0  0
   13.8971    3.1089    0.0000 O   0  0  0  0  0  0  0  0  0  0  0  0
   13.0773    3.1933    0.0000 N   0  0  0  0  0  0  0  0  0  0  0  0
   12.7438    2.4398    0.0000 C   0  0  0  0  0  0  0  0  0  0  0  0
    8.4451    0.8060    0.0000 C   0  0  0  0  0  0  0  0  0  0  0  0
    9.1635    1.2182    0.0000 C   0  0  0  0  0  0  0  0  0  0  0  0
    9.1635    2.0473    0.0000 C   0  0  0  0  0  0  0  0  0  0  0  0
    8.4451    2.4641    0.0000 C   0  0  0  0  0  0  0  0  0  0  0  0
    8.4439    3.2885    0.0000 O   0  0  0  0  0  0  0  0  0  0  0  0
    9.8769    0.8051    0.0000 C   0  0  0  0  0  0  0  0  0  0  0  0
   10.5915    1.2163    0.0000 N   0  0  0  0  0  0  0  0  0  0  0  0
   11.3056    0.7975    0.0000 C   0  0  0  0  0  0  0  0  0  0  0  0
   12.0180    1.2052    0.0000 C   0  0  0  0  0  0  0  0  0  0  0  0
   12.0234    2.0299    0.0000 C   0  0  0  0  0  0  0  0  0  0  0  0
   11.3103    2.4453    0.0000 C   0  0  0  0  0  0  0  0  0  0  0  0
   10.5916    2.0359    0.0000 C   0  0  0  0  0  0  0  0  0  0  0  0
    7.7310    1.2182    0.0000 C   0  0  0  0  0  0  0  0  0  0  0  0
    7.7311    2.0519    0.0000 C   0  0  0  0  0  0  0  0  0  0  0  0
    6.9383    2.3095    0.0000 C   0  0  0  0  0  0  0  0  0  0  0  0
    6.4483    1.6352    0.0000 C   0  0  0  0  0  0  0  0  0  0  0  0
    6.9383    0.9608    0.0000 O   0  0  0  0  0  0  0  0  0  0  0  0
 23 11  1  0  0  0  0 
 11 12  1  0  0  0  0 
 12 13  1  0  0  0  0 
 13 14  1  0  0  0  0 
  2  3  2  0  0  0  0 
 14 15  2  0  0  0  0 
 12 16  1  0  0  0  0 
  3  4  1  0  0  0  0 
 16 17  1  0  0  0  0 
 17 18  1  0  0  0  0 
  4  7  2  0  0  0  0 
  7  8  1  0  0  0  0 
  8  9  1  0  0  0  0 
  9 10  2  0  0  0  0 
 10  6  1  0  0  0  0 
 17 22  1  0  0  0  0 
 18 19  1  0  0  0  0 
 19 20  1  0  0  0  0 
 20 21  1  0  0  0  0 
 21 22  1  0  0  0  0 
 20 10  1  0  0  0  0 
 23 24  2  0  0  0  0 
  1  2  1  0  0  0  0 
  3  5  1  0  0  0  0 
  6  7  1  0  0  0  0 
  6  1  2  0  0  0  0 
 24 14  1  0  0  0  0 
 24 25  1  0  0  0  0 
 25 26  2  0  0  0  0 
 26 27  1  0  0  0  0 
 27 23  1  0  0  0  0 
M  END