
  SciTegic11081110012D

 24 26  0  0  0  0            999 V2000
   -2.6339    0.0944    0.0000 N   0  0
   -2.6157    0.9192    0.0000 C   0  0
   -3.3210    1.3474    0.0000 C   0  0
   -4.0443    0.9507    0.0000 N   0  0
   -4.0625    0.1259    0.0000 C   0  0
   -3.3573   -0.3022    0.0000 C   0  0
   -4.7495    1.3789    0.0000 C   0  0
   -4.7314    2.2037    0.0000 C   0  0
   -5.4729    0.9822    0.0000 C   0  0
   -1.9287   -0.3337    0.0000 C   0  0
   -1.9469   -1.1585    0.0000 O   0  0
   -1.2053    0.0630    0.0000 C   0  0
   -0.5001   -0.3652    0.0000 C   0  0
    0.2233    0.0315    0.0000 C   0  0
    0.2414    0.8563    0.0000 C   0  0
   -0.4638    1.2844    0.0000 N   0  0
   -1.1872    0.8878    0.0000 C   0  0
    0.9648    1.2529    0.0000 C   0  0
    1.6700    0.8248    0.0000 N   0  0
    1.6519    0.0000    0.0000 C   0  0
    2.3571   -0.4282    0.0000 C   0  0
    3.0805   -0.0315    0.0000 C   0  0
    3.0986    0.7933    0.0000 C   0  0
    2.3934    1.2214    0.0000 C   0  0
  1  2  1  0
  1  6  1  0
  2  3  1  0
  3  4  1  0
  4  5  1  0
  5  6  1  0
  4  7  1  0
  7  8  1  0
  7  9  1  0
  1 10  1  0
 10 11  2  0
 10 12  1  0
 13 14  2  0
 14 15  1  0
 15 16  2  0
 16 17  1  0
 17 12  2  0
 12 13  1  0
 15 18  1  0
 18 19  1  0
 19 20  1  0
 19 24  1  0
 20 21  1  0
 21 22  1  0
 22 23  1  0
 23 24  1  0
M  END