
  SciTegic11201309402D

 38 46  0  0  0  0            999 V2000
    4.4261  -26.3457    0.0000 C   0  0
    4.4248  -27.1732    0.0000 C   0  0
    5.1378  -27.5862    0.0000 C   0  0
    5.8571  -27.1728    0.0000 C   0  0
    5.1358  -25.9328    0.0000 C   0  0
    5.8553  -26.3382    0.0000 C   0  0
    5.8362  -24.6895    0.0000 C   0  0  2  0  0  0
    5.1231  -25.1094    0.0000 C   0  0
    6.5557  -25.0948    0.0000 C   0  0  1  0  0  0
    6.5589  -25.9194    0.0000 C   0  0  2  0  0  0
    7.2708  -26.3267    0.0000 C   0  0  1  0  0  0
    7.2643  -24.6775    0.0000 C   0  0
    6.8329  -27.1681    0.0000 O   0  0
    6.5498  -24.2694    0.0000 O   0  0
    7.9807  -25.0892    0.0000 C   0  0
    7.9829  -25.9144    0.0000 C   0  0
    8.7647  -24.8323    0.0000 C   0  0
   10.3977  -24.6554    0.0000 C   0  0
    9.9075  -23.9909    0.0000 C   0  0
    9.0933  -24.0829    0.0000 C   0  0
    7.9936  -27.0177    0.0000 H   0  0
    5.8291  -23.8637    0.0000 N   0  0
    5.4085  -24.5719    0.0000 C   0  0
    5.8439  -25.5069    0.0000 C   0  0
    5.8215  -23.0387    0.0000 C   0  0
    5.1033  -22.6328    0.0000 C   0  0
    4.6848  -21.9179    0.0000 C   0  0
    4.2788  -22.6361    0.0000 C   0  0
    5.1364  -28.4112    0.0000 O   0  0
    9.0366  -26.9562    0.0000 C   0  0
    9.8481  -27.2324    0.0000 C   0  0
   10.5256  -26.7852    0.0000 C   0  0
    8.7687  -26.1633    0.0000 N   0  0
    9.2266  -25.4731    0.0000 C   0  0
   10.0876  -25.3978    0.0000 C   0  0
   10.6346  -25.9758    0.0000 C   0  0
    4.4212  -28.8225    0.0000 C   0  0
    4.9659  -24.1970    0.0000 H   0  0
 17 15  1  0
  6 10  1  0
 17 34  2  0
  9  7  1  0
 35 18  2  0
  7  8  1  0
 18 19  1  0
  9 10  1  0
 19 20  2  0
 20 17  1  0
  4  6  1  0
 11 21  1  1
  5  1  1  0
  7 22  1  0
  5  6  2  0
 22 23  1  0
 10 24  1  1
 24 23  1  0
  9 12  1  0
 22 25  1  0
 10 11  1  0
 25 26  1  0
 27 26  1  0
 28 27  1  0
 26 28  1  0
 11 16  1  0
 15 12  1  0
  2  3  1  0
  3 29  1  0
  4 13  1  0
 11 13  1  0
  1  2  2  0
  9 14  1  1
 15 16  2  0
  3  4  2  0
  5  8  1  0
 30 31  1  0
 31 32  1  0
 30 33  1  0
 34 35  1  0
 35 36  1  0
 36 32  1  0
 33 34  1  0
 16 33  1  0
 29 37  1  0
  7 38  1  6
M  END