
  SciTegic03291108542D

 15 17  0  0  0  0            999 V2000
   -1.7321   -0.5505    0.0000 N   0  0
   -1.0177   -0.1380    0.0000 N   0  0
    0.4113   -0.1380    0.0000 N   0  0
   -2.5168   -1.6305    0.0000 N   0  0
   -3.0017   -0.9630    0.0000 N   0  0
   -1.7321   -1.3755    0.0000 C   0  0
   -0.3032   -0.5505    0.0000 C   0  0
   -2.5168   -0.2956    0.0000 C   0  0
   -1.0177   -1.7880    0.0000 C   0  0
   -0.3032   -1.3755    0.0000 C   0  0
    0.4975    0.6825    0.0000 C   0  0
    1.1650   -0.4736    0.0000 C   0  0
   -2.7717    0.4890    0.0000 C   0  0
    1.3045    0.8540    0.0000 C   0  0
    1.7170    0.1395    0.0000 C   0  0
  1  2  1  0
  1  6  1  0
  1  8  1  0
  2  7  2  0
  3  7  1  0
  3 11  1  0
  3 12  1  0
  4  5  1  0
  4  6  2  0
  5  8  2  0
  6  9  1  0
  7 10  1  0
  8 13  1  0
  9 10  2  0
 11 14  1  0
 12 15  1  0
 14 15  1  0
M  END