
  SciTegic12231509382D

 15 16  0  0  0  0            999 V2000
   -3.7995    1.8362    0.0000 C   0  0
   -3.3845    1.1232    0.0000 C   0  0
   -2.5587    1.1232    0.0000 N   0  0
   -2.1480    1.8362    0.0000 C   0  0
   -2.5587    2.5490    0.0000 C   0  0
   -3.3845    2.5490    0.0000 C   0  0
   -1.3223    1.8362    0.0000 C   0  0
   -0.4923    1.8362    0.0000 C   0  0
    0.3333    1.8362    0.0000 C   0  0
    0.7441    1.1232    0.0000 C   0  0
    1.5698    1.1232    0.0000 C   0  0
    1.9849    1.8362    0.0000 C   0  0
    1.5698    2.5490    0.0000 C   0  0
    0.7441    2.5490    0.0000 C   0  0
   -3.7995    0.4103    0.0000 C   0  0
  1  2  2  0
  2  3  1  0
  3  4  2  0
  4  5  1  0
  5  6  2  0
  6  1  1  0
  4  7  1  0
  7  8  3  0
  8  9  1  0
  9 10  2  0
 10 11  1  0
 11 12  2  0
 12 13  1  0
 13 14  2  0
 14  9  1  0
  2 15  1  0
M  END