
  SciTegic12231509382D

 16 16  0  0  0  0            999 V2000
    3.3409    0.9171    0.0000 S   0  0
    4.8561    0.0966    0.0000 O   0  0
    4.1416   -1.1409    0.0000 O   0  0
    6.2850    0.9216    0.0000 O   0  0
    7.7140    0.0966    0.0000 N   0  0
    3.4271    0.0966    0.0000 C   0  0
    4.1416   -0.3159    0.0000 C   0  0
    2.6735   -0.2390    0.0000 C   0  0
    2.5339    1.0886    0.0000 C   0  0
    2.1214    0.3741    0.0000 C   0  0
    5.5705   -0.3159    0.0000 C   0  0
    6.2850    0.0966    0.0000 C   0  0
    6.9995   -0.3159    0.0000 C   0  0
    8.4284   -0.3159    0.0000 C   0  0
    9.1429    0.0966    0.0000 C   0  0
    8.4284   -1.1409    0.0000 C   0  0
  1  6  1  0
  1  9  1  0
  2  7  1  0
  2 11  1  0
  3  7  2  0
  4 12  1  0
  5 13  1  0
  5 14  1  0
  6  7  1  0
  6  8  2  0
  8 10  1  0
  9 10  2  0
 11 12  1  0
 12 13  1  0
 14 15  1  0
 14 16  1  0
M  END