
  Mrv0541 05211314572D          

 22 22  0  0  0  0            999 V2000
   -1.7004    0.8132    0.0000 C   0  0  0  0  0  0  0  0  0  0  0  0
   -1.2155    0.1458    0.0000 N   0  0  0  0  0  0  0  0  0  0  0  0
   -1.5510   -0.6079    0.0000 C   0  0  0  0  0  0  0  0  0  0  0  0
   -2.3715   -0.6941    0.0000 C   0  0  0  0  0  0  0  0  0  0  0  0
   -2.8564   -0.0267    0.0000 N   0  0  0  0  0  0  0  0  0  0  0  0
   -2.5209    0.7270    0.0000 C   0  0  0  0  0  0  0  0  0  0  0  0
   -0.3950    0.2320    0.0000 C   0  0  0  0  0  0  0  0  0  0  0  0
    0.1570   -0.3811    0.0000 S   0  0  0  0  0  0  0  0  0  0  0  0
    0.9107   -0.0455    0.0000 C   0  0  0  0  0  0  0  0  0  0  0  0
    0.8245    0.7749    0.0000 C   0  0  0  0  0  0  0  0  0  0  0  0
    0.0175    0.9465    0.0000 N   0  0  0  0  0  0  0  0  0  0  0  0
    1.6252   -0.4580    0.0000 C   0  0  0  0  0  0  0  0  0  0  0  0
    2.3396   -0.0455    0.0000 C   0  0  0  0  0  0  0  0  0  0  0  0
    3.0541   -0.4580    0.0000 N   0  0  0  0  0  0  0  0  0  0  0  0
   -3.6769   -0.1129    0.0000 C   0  0  0  0  0  0  0  0  0  0  0  0
   -4.1619    0.5545    0.0000 C   0  0  0  0  0  0  0  0  0  0  0  0
   -4.9823    0.4683    0.0000 C   0  0  0  0  0  0  0  0  0  0  0  0
    3.0541   -1.2830    0.0000 C   0  0  0  0  0  0  0  0  0  0  0  0
    3.7686   -0.0455    0.0000 C   0  0  0  0  0  0  0  0  0  0  0  0
    4.4831   -0.4580    0.0000 C   0  0  0  0  0  0  0  0  0  0  0  0
    5.1975   -0.0455    0.0000 C   0  0  0  0  0  0  0  0  0  0  0  0
    7.4368    0.0000    0.0000 Br  0  0  0  0  0  0  0  0  0  0  0  0
  9 10  2  0  0  0  0
 10 11  1  0  0  0  0
 11  7  2  0  0  0  0
  4  5  1  0  0  0  0
  9 12  1  0  0  0  0
  5  6  1  0  0  0  0
 12 13  1  0  0  0  0
 13 14  1  0  0  0  0
  2  7  1  0  0  0  0
  5 15  1  0  0  0  0
  7  8  1  0  0  0  0
 15 16  1  0  0  0  0
  1  2  1  0  0  0  0
 16 17  1  0  0  0  0
  1  6  1  0  0  0  0
 14 18  1  0  0  0  0
  2  3  1  0  0  0  0
 14 19  1  0  0  0  0
  3  4  1  0  0  0  0
 19 20  1  0  0  0  0
  8  9  1  0  0  0  0
 20 21  1  0  0  0  0
M  END