
  SciTegic04091511462D

 57 60  0  0  1  0            999 V2000
    4.3262   -2.3206    0.0000 N   0  0
    4.9295   -2.9130    0.0000 C   0  0
    5.6083   -1.2960    0.0000 C   0  0
    4.8004   -1.5913    0.0000 C   0  0  2  0  0  0
    5.2499   -4.1829    0.0000 N   0  0
    7.6666   -4.1749    0.0000 N   0  0
    6.4642   -1.3548    0.0000 N   0  0
   10.0090   -4.8099    0.0000 N   0  0
    6.0469   -4.3851    0.0000 C   0  0
    8.3557   -4.6271    0.0000 C   0  0
    3.6019   -2.7638    0.0000 C   0  0
    4.5883   -3.6764    0.0000 C   0  0  2  0  0  0
   10.7528   -4.4258    0.0000 C   0  0
    3.7588   -3.5749    0.0000 C   0  0
   10.4622   -2.8156    0.0000 N   0  0
    9.1936   -4.6332    0.0000 C   0  0  2  0  0  0
    6.8729   -4.3924    0.0000 C   0  0  2  0  0  0
    7.9416   -1.5490    0.0000 C   0  0
    8.7057   -1.8799    0.0000 N   0  0
   10.8219   -3.5820    0.0000 C   0  0  1  0  0  0
    7.1611   -1.8485    0.0000 C   0  0  2  0  0  0
   10.1958   -2.0143    0.0000 C   0  0
   12.7248   -2.5127    0.0000 C   0  0
    5.7401   -2.7595    0.0000 O   0  0
    5.4924   -0.4791    0.0000 O   0  0
    4.2866   -0.9458    0.0000 C   0  0
    5.9411   -5.2033    0.0000 O   0  0
    8.1167   -5.4167    0.0000 O   0  0
   11.4393   -4.8834    0.0000 O   0  0
    9.1027   -5.4531    0.0000 C   0  0
    6.9793   -5.2105    0.0000 C   0  0
    7.9590   -0.7242    0.0000 O   0  0
    9.4807   -1.5721    0.0000 C   0  0
   10.8430   -1.5027    0.0000 O   0  0
   13.0039   -1.7363    0.0000 O   0  0
   11.6338   -3.4356    0.0000 C   0  0
   11.9129   -2.6592    0.0000 C   0  0
   13.2576   -3.1426    0.0000 N   0  0
    7.2639   -1.0299    0.0000 C   0  0
    9.7674   -5.9418    0.0000 C   0  0
    6.3239   -5.7117    0.0000 C   0  0
    6.7093    0.2870    0.0000 S   0  0
    3.4707   -1.0681    0.0000 C   0  0
    6.6064   -0.5316    0.0000 C   0  0
    7.4696    0.6072    0.0000 C   0  0
    9.6766   -6.7618    0.0000 C   0  0
    5.5622   -5.3948    0.0000 C   0  0
   10.5230   -5.6105    0.0000 C   0  0
    6.4303   -6.5298    0.0000 C   0  0
    3.1687   -1.8359    0.0000 C   0  0
    2.9569   -0.4227    0.0000 C   0  0
    5.7750   -7.0310    0.0000 C   0  0
    4.9069   -5.8959    0.0000 C   0  0
   11.1877   -6.0992    0.0000 C   0  0
   10.3413   -7.2505    0.0000 C   0  0
    5.0133   -6.7140    0.0000 C   0  0
   11.0968   -6.9192    0.0000 C   0  0
  2  1  1  0
  3  4  1  0
  4  1  1  0
 12  5  1  6
  6 17  1  0
  7  3  1  0
  8 16  1  0
  9  5  1  0
 10  6  1  0
 11  1  1  0
 12  2  1  0
 13  8  1  0
 14 11  2  0
 15 22  1  0
 16 10  1  0
 17  9  1  0
 18 21  1  0
 19 18  1  0
 20 15  1  0
 21  7  1  0
 22 33  1  0
 23 37  1  0
 24  2  2  0
 25  3  2  0
  4 26  1  1
 27  9  2  0
 28 10  2  0
 29 13  2  0
 16 30  1  6
 17 31  1  1
 32 18  2  0
 33 19  1  0
 34 22  2  0
 35 23  2  0
 20 36  1  1
 37 36  1  0
 38 23  1  0
 21 39  1  6
 40 30  1  0
 41 31  1  0
 42 44  1  0
 43 26  1  0
 44 39  1  0
 45 42  1  0
 46 40  2  0
 47 41  2  0
 48 40  1  0
 49 41  1  0
 50 43  1  0
 51 43  1  0
 52 49  2  0
 53 47  1  0
 54 48  2  0
 55 46  1  0
 56 52  1  0
 57 54  1  0
 14 12  1  0
 13 20  1  0
 56 53  2  0
 55 57  2  0
M  END