
  SciTegic04091511462D

 71 75  0  0  1  0            999 V2000
    6.8813   -1.0839    0.0000 N   0  0
    5.2119   -6.9768    0.0000 N   0  0
    5.8348   -6.4204    0.0000 C   0  0
    7.3921   -1.7317    0.0000 C   0  0  2  0  0  0
    4.5640   -0.4734    0.0000 N   0  0
    7.6911   -2.4959    0.0000 C   0  0
    6.1837   -0.6354    0.0000 C   0  0
    5.6604   -5.6188    0.0000 C   0  0  2  0  0  0
    6.4328   -5.3240    0.0000 N   0  0
    7.7285   -3.3182    0.0000 N   0  0
    3.7916   -0.7642    0.0000 C   0  0
    7.0682   -4.8090    0.0000 C   0  0
    6.0217   -8.2102    0.0000 C   0  0
    2.3215    0.0706    0.0000 C   0  0
    5.3863   -0.4236    0.0000 C   0  0  2  0  0  0
    7.5167   -4.1155    0.0000 C   0  0  2  0  0  0
    2.8447    0.7101    0.0000 N   0  0
    2.7077   -1.9726    0.0000 N   0  0
    5.2991   -7.7991    0.0000 C   0  0  2  0  0  0
    3.1562   -1.2832    0.0000 C   0  0  2  0  0  0
    2.4959   -2.7658    0.0000 C   0  0
    6.0217   -9.0325    0.0000 N   0  0
    8.2767   -4.4519    0.0000 C   0  0
    1.5491    0.3613    0.0000 C   0  0
    2.5457   -0.7268    0.0000 C   0  0
    2.5333   -3.5881    0.0000 C   0  0
    4.0408   -5.4569    0.0000 S   0  0
    2.3962    1.4036    0.0000 C   0  0
    6.7318  -10.2659    0.0000 C   0  0
    3.3431   -5.0084    0.0000 S   0  0
    1.5864    1.1918    0.0000 C   0  0
    8.3514   -5.2700    0.0000 C   0  0
    2.8323   -4.3605    0.0000 C   0  0
    6.7318   -9.4436    0.0000 C   0  0  2  0  0  0
    6.6072   -6.6778    0.0000 O   0  0
    8.4885   -2.3215    0.0000 O   0  0
    6.5200    0.1121    0.0000 O   0  0
    4.8381   -5.6604    0.0000 C   0  0
    6.7318   -7.7991    0.0000 O   0  0
    3.3805   -0.0498    0.0000 O   0  0
    7.6787   -5.3572    0.0000 O   0  0
    1.6736   -2.6786    0.0000 O   0  0
    8.1023   -1.3123    0.0000 C   0  0  2  0  0  0
    6.0217  -10.6812    0.0000 O   0  0
    7.6911   -5.7559    0.0000 O   0  0
    5.4735    0.3987    0.0000 C   0  0  2  0  0  0
    4.4145   -6.8066    0.0000 C   0  0
    9.1114   -5.6064    0.0000 N   0  0
    7.4420  -10.6812    0.0000 O   0  0
    9.5848   -9.4436    0.0000 N   0  0
    8.1023   -0.4901    0.0000 O   0  0
    4.5516   -8.1355    0.0000 C   0  0
    4.0034   -7.5250    0.0000 C   0  0
    2.6080    2.2052    0.0000 C   0  0
    1.0133    1.7691    0.0000 C   0  0
    2.9320   -5.1329    0.0000 C   0  0
    2.2094   -3.8913    0.0000 C   0  0
    7.4420   -9.0325    0.0000 C   0  0
    8.8747   -9.0325    0.0000 C   0  0
    6.2210    0.7309    0.0000 C   0  0
    8.8249   -1.7317    0.0000 C   0  0
    4.8132    0.8804    0.0000 C   0  0
    8.1521   -9.4436    0.0000 C   0  0
    6.3082    1.5531    0.0000 C   0  0
    1.2127    2.5747    0.0000 C   0  0
    2.0225    2.7907    0.0000 C   0  0
    1.4992   -4.2982    0.0000 C   0  0
    2.2094   -5.5441    0.0000 C   0  0
    1.4992   -5.1329    0.0000 C   0  0
    4.6976    0.2969    0.0000 H   0  0
    7.5753   -0.7520    0.0000 H   0  0
  2  3  1  0
  8  3  1  1
  4  1  1  0
  5 15  1  0
  6  4  1  0
  7  1  1  0
  8  9  1  0
  9 12  1  0
 10  6  1  0
 11  5  1  0
 12 16  1  0
 19 13  1  6
 14 25  1  0
 15  7  1  0
 16 10  1  0
 17 14  1  0
 18 20  1  0
 19  2  1  0
 20 11  1  0
 21 18  1  0
 22 13  1  0
 16 23  1  1
 24 14  2  0
 20 25  1  6
 26 21  1  0
 27 38  1  0
 28 17  1  0
 29 34  1  0
 30 33  1  0
 31 24  1  0
 32 23  1  0
 33 26  1  0
 34 22  1  1
 35  3  2  0
 36  6  2  0
 37  7  2  0
  8 38  1  0
 39 13  2  0
 40 11  2  0
 41 12  2  0
 42 21  2  0
  4 43  1  0
 44 29  2  0
 45 32  2  0
 15 46  1  0
 47  2  1  0
 48 32  1  0
 49 29  1  0
 50 59  1  0
 43 51  1  6
 19 52  1  0
 53 47  1  0
 54 28  1  0
 55 31  1  0
 56 33  1  0
 57 33  1  0
 34 58  1  0
 59 63  1  0
 60 46  1  0
 43 61  1  0
 46 62  1  1
 63 58  1  0
 64 60  1  0
 65 55  2  0
 66 54  2  0
 67 57  1  0
 68 56  1  0
 69 67  1  0
 28 31  2  0
 30 27  1  0
 65 66  1  0
 52 53  1  0
 69 68  1  0
 15 70  1  6
  4 71  1  6
M  END