
          11280715572D 1   1.00000     0.00000     0

 75 80  0     1  0            999 V2000
    8.8167   -2.1375    0.0000 N   0  0  3  0  0  0           0  0  0
    8.3042   -1.8375    0.0000 C   0  0  0  0  0  0           0  0  0
    2.0542   -1.8750    0.0000 C   0  0  0  0  0  0           0  0  0
    3.6250   -2.1625    0.0000 C   0  0  0  0  0  0           0  0  0
    5.1792   -1.8500    0.0000 C   0  0  0  0  0  0           0  0  0
    6.7417   -2.1375    0.0000 C   0  0  0  0  0  0           0  0  0
    9.3792   -2.3542    0.0000 C   0  0  3  0  0  0           0  0  0
   -1.5083   -0.8000    0.0000 N   0  0  0  0  0  0           0  0  0
    2.5792   -2.1667    0.0000 N   0  0  0  0  0  0           0  0  0
    1.5417   -2.1792    0.0000 C   0  0  1  0  0  0           0  0  0
    5.7042   -2.1417    0.0000 N   0  0  0  0  0  0           0  0  0
    4.1417   -1.8542    0.0000 N   0  0  0  0  0  0           0  0  0
    7.2625   -1.8292    0.0000 N   0  0  0  0  0  0           0  0  0
   -0.5500   -0.9917    0.0000 C   0  0  0  0  0  0           0  0  0
    4.6667   -2.1542    0.0000 C   0  0  2  0  0  0           0  0  0
   -1.1083   -1.2417    0.0000 C   0  0  0  0  0  0           0  0  0
    3.0917   -1.8667    0.0000 C   0  0  1  0  0  0           0  0  0
    6.2250   -1.8417    0.0000 C   0  0  1  0  0  0           0  0  0
    9.5375   -2.9375    0.0000 C   0  0  0  0  0  0           0  0  0
    7.7875   -2.1375    0.0000 C   0  0  1  0  0  0           0  0  0
    8.7917   -4.5500    0.0000 C   0  0  0  0  0  0           0  0  0
    1.0167   -1.8792    0.0000 N   0  0  0  0  0  0           0  0  0
   -0.6208   -0.4000    0.0000 C   0  0  0  0  0  0           0  0  0
    0.4917   -2.1875    0.0000 C   0  0  0  0  0  0           0  0  0
   -1.2083   -0.2750    0.0000 C   0  0  0  0  0  0           0  0  0
    8.2750   -4.8417    0.0000 N   0  0  0  0  0  0           0  0  0
    8.3125   -1.2375    0.0000 O   0  0  0  0  0  0           0  0  0
    4.6667   -2.7542    0.0000 C   0  0  0  0  0  0           0  0  0
    2.0542   -1.2750    0.0000 O   0  0  0  0  0  0           0  0  0
    3.6292   -2.7625    0.0000 O   0  0  0  0  0  0           0  0  0
    5.1792   -1.2500    0.0000 O   0  0  0  0  0  0           0  0  0
    6.7542   -2.7375    0.0000 O   0  0  0  0  0  0           0  0  0
    5.7125   -3.9375    0.0000 C   0  0  0  0  0  0           0  0  0
    3.0917   -1.2625    0.0000 C   0  0  0  0  0  0           0  0  0
    5.1917   -3.0500    0.0000 C   0  0  0  0  0  0           0  0  0
    5.1917   -3.6417    0.0000 C   0  0  0  0  0  0           0  0  0
    9.1042   -3.3542    0.0000 O   0  0  0  0  0  0           0  0  0
    6.2167   -1.2417    0.0000 C   0  0  0  0  0  0           0  0  0
   -0.0333   -1.2917    0.0000 C   0  0  0  0  0  0           0  0  0
    0.5042   -2.7917    0.0000 O   0  0  0  0  0  0           0  0  0
    8.8042   -3.9500    0.0000 N   0  0  0  0  0  0           0  0  0
    6.2292   -3.6375    0.0000 C   0  0  0  0  0  0           0  0  0
   10.1167   -3.0917    0.0000 N   0  0  0  0  0  0           0  0  0
    9.3125   -4.8542    0.0000 N   0  0  0  0  0  0           0  0  0
    6.2167   -3.0375    0.0000 C   0  0  0  0  0  0           0  0  0
    8.8542   -1.5375    0.0000 C   0  0  0  0  0  0           0  0  0
   -0.0250   -1.8917    0.0000 C   0  0  0  0  0  0           0  0  0
    3.6125   -0.9542    0.0000 C   0  0  0  0  0  0           0  0  0
    5.7000   -2.7417    0.0000 C   0  0  0  0  0  0           0  0  0
    4.6500   -0.3500    0.0000 C   0  0  0  0  0  0           0  0  0
    1.5417   -2.7792    0.0000 C   0  0  0  0  0  0           0  0  0
    4.1375   -1.2542    0.0000 C   0  0  0  0  0  0           0  0  0
    3.6042   -0.3542    0.0000 C   0  0  0  0  0  0           0  0  0
    4.6542   -0.9500    0.0000 C   0  0  0  0  0  0           0  0  0
    4.1292   -0.0542    0.0000 C   0  0  0  0  0  0           0  0  0
    9.7625   -1.8917    0.0000 C   0  0  0  0  0  0           0  0  0
    5.1667   -0.0417    0.0000 O   0  0  0  0  0  0           0  0  0
    2.0667   -3.0750    0.0000 O   0  0  0  0  0  0           0  0  0
    9.4375   -1.3875    0.0000 C   0  0  0  0  0  0           0  0  0
    7.7792   -2.7375    0.0000 C   0  0  0  0  0  0           0  0  0
   -0.2208    0.0583    0.0000 C   0  0  0  0  0  0           0  0  0
    6.7292   -0.9375    0.0000 C   0  0  3  0  0  0           0  0  0
   -1.4000    0.2958    0.0000 C   0  0  0  0  0  0           0  0  0
    5.7167   -4.5292    0.0000 C   0  0  0  0  0  0           0  0  0
   10.2667   -3.6750    0.0000 C   0  0  0  0  0  0           0  0  0
    8.2875   -3.6417    0.0000 C   0  0  0  0  0  0           0  0  0
    6.7417   -3.9292    0.0000 C   0  0  0  0  0  0           0  0  0
    8.2917   -3.0417    0.0000 C   0  0  0  0  0  0           0  0  0
    7.2542   -1.2292    0.0000 C   0  0  0  0  0  0           0  0  0
    6.7292   -0.3375    0.0000 C   0  0  0  0  0  0           0  0  0
   10.8417   -3.8292    0.0000 C   0  0  0  0  0  0           0  0  0
   -0.4125    0.6250    0.0000 C   0  0  0  0  0  0           0  0  0
    6.2375   -4.8292    0.0000 C   0  0  0  0  0  0           0  0  0
   -1.0000    0.7458    0.0000 C   0  0  0  0  0  0           0  0  0
    6.7542   -4.5167    0.0000 C   0  0  0  0  0  0           0  0  0
  2  1  1  0     0  0
  3  9  1  0     0  0
  4 12  1  0     0  0
  5 11  1  0     0  0
  6 13  1  0     0  0
  7  1  1  0     0  0
  8 16  1  0     0  0
  9 17  1  0     0  0
 10  3  1  0     0  0
 11 18  1  0     0  0
 12 15  1  0     0  0
 13 20  1  0     0  0
 14 39  1  0     0  0
 15  5  1  0     0  0
 16 14  2  0     0  0
 17  4  1  0     0  0
 18  6  1  0     0  0
 19  7  1  0     0  0
 20  2  1  0     0  0
 21 41  2  0     0  0
 22 10  1  0     0  0
 23 14  1  0     0  0
 24 22  1  0     0  0
 25 23  2  0     0  0
 26 21  1  0     0  0
 27  2  2  0     0  0
 15 28  1  1     0  0
 29  3  2  0     0  0
 30  4  2  0     0  0
 31  5  2  0     0  0
 32  6  2  0     0  0
 33 36  1  0     0  0
 17 34  1  1     0  0
 35 28  1  0     0  0
 36 35  2  0     0  0
 37 19  2  0     0  0
 18 38  1  1     0  0
 39 47  1  0     0  0
 40 24  2  0     0  0
 41 66  1  0     0  0
 42 45  1  0     0  0
 43 19  1  0     0  0
 44 21  1  0     0  0
 45 49  2  0     0  0
 46  1  1  0     0  0
 47 24  1  0     0  0
 48 34  1  0     0  0
 49 35  1  0     0  0
 50 55  1  0     0  0
 10 51  1  6     0  0
 52 48  2  0     0  0
 53 48  1  0     0  0
 54 52  1  0     0  0
 55 53  2  0     0  0
 56  7  1  0     0  0
 57 50  1  0     0  0
 58 51  1  0     0  0
 59 46  1  0     0  0
 20 60  1  6     0  0
 61 23  1  0     0  0
 62 38  1  0     0  0
 63 25  1  0     0  0
 64 33  2  0     0  0
 65 43  1  0     0  0
 66 68  1  0     0  0
 67 42  2  0     0  0
 68 60  1  0     0  0
 69 62  1  0     0  0
 70 62  1  0     0  0
 71 65  1  0     0  0
 72 61  2  0     0  0
 73 64  1  0     0  0
 74 72  1  0     0  0
 75 67  1  0     0  0
 59 56  1  0     0  0
 42 33  1  0     0  0
 73 75  2  0     0  0
 50 54  2  0     0  0
 25  8  1  0     0  0
 63 74  2  0     0  0
M  END