
          11280715262D 1   1.00000     0.00000     0

 33 36  0     0  0            999 V2000
    1.3917    0.8083    0.0000 N   0  0  3  0  0  0           0  0  0
    0.7250    1.2875    0.0000 C   0  0  0  0  0  0           0  0  0
    6.4042   -3.6917    0.0000 N   0  3  0  0  0  0           0  0  0
    2.0542    1.2875    0.0000 C   0  0  0  0  0  0           0  0  0
    0.9750    2.0708    0.0000 S   0  0  0  0  0  0           0  0  0
    6.4042   -2.8667    0.0000 C   0  0  0  0  0  0           0  0  0
    5.6875   -2.4625    0.0000 C   0  0  0  0  0  0           0  0  0
    1.3917   -0.0167    0.0000 C   0  0  3  0  0  0           0  0  0
    5.6917   -4.1042    0.0000 O   0  5  0  0  0  0           0  0  0
    1.8000    2.0708    0.0000 C   0  0  0  0  0  0           0  0  0
    5.6875   -1.6417    0.0000 C   0  0  0  0  0  0           0  0  0
    7.1167   -4.0917    0.0000 O   0  0  0  0  0  0           0  0  0
   -0.0583    1.0333    0.0000 O   0  0  0  0  0  0           0  0  0
    4.9667   -1.2292    0.0000 C   0  0  0  0  0  0           0  0  0
    2.8375    1.0375    0.0000 O   0  0  0  0  0  0           0  0  0
   -2.1750   -1.2542    0.0000 N   0  0  0  0  0  0           0  0  0
    2.1125   -0.4167    0.0000 C   0  0  0  0  0  0           0  0  0
    4.2542   -1.6417    0.0000 C   0  0  0  0  0  0           0  0  0
    4.9625   -0.4042    0.0000 C   0  0  0  0  0  0           0  0  0
    0.6792   -0.4250    0.0000 C   0  0  0  0  0  0           0  0  0
    2.8250   -0.0042    0.0000 O   0  0  0  0  0  0           0  0  0
    3.5417   -0.4167    0.0000 C   0  0  0  0  0  0           0  0  0
   -0.0333   -0.0167    0.0000 C   0  0  0  0  0  0           0  0  0
    4.2417   -0.0042    0.0000 C   0  0  0  0  0  0           0  0  0
    3.5417   -1.2375    0.0000 C   0  0  0  0  0  0           0  0  0
   -0.7458   -0.4292    0.0000 C   0  0  0  0  0  0           0  0  0
    7.1167   -2.4542    0.0000 C   0  0  0  0  0  0           0  0  0
    6.3917   -1.2250    0.0000 C   0  0  0  0  0  0           0  0  0
    7.1042   -1.6292    0.0000 C   0  0  0  0  0  0           0  0  0
   -1.4625   -1.6667    0.0000 C   0  0  0  0  0  0           0  0  0
   -2.1750   -0.4375    0.0000 C   0  0  0  0  0  0           0  0  0
   -0.7458   -1.2542    0.0000 C   0  0  0  0  0  0           0  0  0
   -1.4625   -0.0250    0.0000 C   0  0  0  0  0  0           0  0  0
  2  1  1  0     0  0
  3  6  1  0     0  0
  4  1  1  0     0  0
  5  2  1  0     0  0
  6  7  1  0     0  0
  7 11  2  0     0  0
  8  1  1  0     0  0
  9  3  1  0     0  0
 10  4  1  0     0  0
 11 14  1  0     0  0
 12  3  2  0     0  0
 13  2  2  0     0  0
 14 18  2  0     0  0
 15  4  2  0     0  0
 16 31  2  0     0  0
 17  8  1  0     0  0
 18 25  1  0     0  0
 19 24  2  0     0  0
 20  8  1  0     0  0
 21 17  1  0     0  0
 22 21  1  0     0  0
 23 20  1  0     0  0
 24 22  1  0     0  0
 25 22  2  0     0  0
 26 23  1  0     0  0
 27 29  1  0     0  0
 28 11  1  0     0  0
 29 28  2  0     0  0
 30 32  2  0     0  0
 31 33  1  0     0  0
 32 26  1  0     0  0
 33 26  2  0     0  0
 10  5  1  0     0  0
 16 30  1  0     0  0
 14 19  1  0     0  0
  6 27  2  0     0  0
M  CHG  2   3   1   9  -1
M  END