
  SciTegic06051313522D

 34 39  0  0  0  0            999 V2000
   30.6226  -15.3161    0.0000 C   0  0
   30.6215  -16.1356    0.0000 C   0  0
   31.3295  -16.5446    0.0000 C   0  0
   31.3277  -14.9072    0.0000 C   0  0
   32.0364  -15.3125    0.0000 C   0  0
   32.0371  -16.1315    0.0000 C   0  0
   32.7456  -16.5386    0.0000 C   0  0
   33.4539  -16.1278    0.0000 C   0  0
   33.4492  -15.3056    0.0000 C   0  0
   32.7401  -14.9023    0.0000 C   0  0
   31.5416  -14.1110    0.0000 C   0  0
   32.5226  -14.1069    0.0000 C   0  0
   32.8218  -13.1726    0.0000 C   0  0
   32.0257  -12.5992    0.0000 C   0  0
   31.2346  -13.1793    0.0000 N   0  0
   32.0215  -11.6182    0.0000 O   0  0
   33.7536  -12.8655    0.0000 N   0  0
   34.4853  -13.5189    0.0000 C   0  0
   35.4171  -13.2118    0.0000 C   0  0
   36.1489  -13.8652    0.0000 C   0  0
   37.0806  -13.5582    0.0000 C   0  0
   37.8097  -14.2161    0.0000 C   0  0
   38.7407  -13.9097    0.0000 C   0  0
   38.9414  -12.9484    0.0000 C   0  0
   38.2037  -12.2940    0.0000 C   0  0
   37.2755  -12.6038    0.0000 C   0  0
   32.7473  -17.3558    0.0000 S   0  0
   33.4559  -17.7629    0.0000 C   0  0
   33.4543  -18.5777    0.0000 C   0  0
   34.1620  -18.9848    0.0000 C   0  0
   34.8698  -18.5747    0.0000 C   0  0
   34.8655  -17.7533    0.0000 C   0  0
   34.1572  -17.3499    0.0000 C   0  0
   35.5789  -18.9808    0.0000 N   0  0
  1  2  2  0
  2  3  1  0
  3  6  2  0
  5  4  2  0
  4  1  1  0
  5  6  1  0
  6  7  1  0
  7  8  2  0
  8  9  1  0
  9 10  2  0
 10  5  1  0
  4 11  1  0
 10 12  1  0
 11 12  1  0
 12 13  2  0
 13 14  1  0
 14 15  1  0
 15 11  2  0
 14 16  2  0
 13 17  1  0
 17 18  1  0
 18 19  1  0
 19 20  1  0
 20 21  1  0
 21 22  2  0
 22 23  1  0
 23 24  2  0
 24 25  1  0
 25 26  2  0
 26 21  1  0
  7 27  1  0
 27 28  1  0
 28 29  2  0
 29 30  1  0
 30 31  2  0
 31 32  1  0
 32 33  2  0
 33 28  1  0
 31 34  1  0
M  END