
          11280714492D 1   1.00000     0.00000     0

 43 46  0     0  0            999 V2000
    4.3042    0.1958    0.0000 S   0  0  3  0  0  0           0  0  0
    5.0250    0.6083    0.0000 C   0  0  0  0  0  0           0  0  0
    5.7292    0.1958    0.0000 C   0  0  0  0  0  0           0  0  0
    6.4417    0.6000    0.0000 C   0  0  0  0  0  0           0  0  0
    7.1542    0.1875    0.0000 C   0  0  0  0  0  0           0  0  0
   -3.4458   -0.3667    0.0000 N   0  0  3  0  0  0           0  0  0
   -4.1333   -0.0667    0.0000 C   0  0  0  0  0  0           0  0  0
    4.7167   -0.5167    0.0000 O   0  0  0  0  0  0           0  0  0
    3.8917    0.9125    0.0000 O   0  0  0  0  0  0           0  0  0
   -4.1208    0.6708    0.0000 N   0  0  0  0  0  0           0  0  0
    3.5917   -0.2167    0.0000 N   0  0  0  0  0  0           0  0  0
    7.8667    0.6000    0.0000 N   0  0  3  0  0  0           0  0  0
   -3.4625   -1.0917    0.0000 C   0  0  0  0  0  0           0  0  0
   -2.7708    0.0458    0.0000 C   0  0  0  0  0  0           0  0  0
   -4.1458   -1.4917    0.0000 C   0  0  0  0  0  0           0  0  0
   -1.4083    0.1458    0.0000 N   0  0  3  0  0  0           0  0  0
   -2.0875   -0.2625    0.0000 C   0  0  0  0  0  0           0  0  0
   -5.5208   -2.3292    0.0000 C   0  0  0  0  0  0           0  0  0
    6.4500    1.4250    0.0000 C   0  0  0  0  0  0           0  0  0
    5.7250   -0.6292    0.0000 C   0  0  0  0  0  0           0  0  0
    5.0167    1.4333    0.0000 C   0  0  0  0  0  0           0  0  0
   -4.8333   -1.2042    0.0000 C   0  0  0  0  0  0           0  0  0
   -4.1583   -2.2292    0.0000 C   0  0  0  0  0  0           0  0  0
   -5.4958   -1.6167    0.0000 C   0  0  0  0  0  0           0  0  0
   -4.8458   -2.6542    0.0000 C   0  0  0  0  0  0           0  0  0
    7.1500   -0.6292    0.0000 C   0  0  0  0  0  0           0  0  0
   -6.2042   -2.7542    0.0000 O   0  0  0  0  0  0           0  0  0
    6.4292   -1.0417    0.0000 C   0  0  0  0  0  0           0  0  0
    5.7292    1.8458    0.0000 C   0  0  0  0  0  0           0  0  0
   -4.8083   -0.4792    0.0000 C   0  0  0  0  0  0           0  0  0
   -4.8000    0.9750    0.0000 C   0  0  0  0  0  0           0  0  0
    8.5792    0.1833    0.0000 C   0  0  0  0  0  0           0  0  0
    7.8750    1.4250    0.0000 C   0  0  0  0  0  0           0  0  0
    2.8792    0.1833    0.0000 C   0  0  0  0  0  0           0  0  0
   -0.6875   -0.2542    0.0000 C   0  0  0  0  0  0           0  0  0
   -1.4083    0.8708    0.0000 C   0  0  0  0  0  0           0  0  0
   -6.2125   -3.4667    0.0000 C   0  0  0  0  0  0           0  0  0
    0.0250    0.1583    0.0000 C   0  0  0  0  0  0           0  0  0
    2.1667   -0.2292    0.0000 C   0  0  0  0  0  0           0  0  0
    1.4542    0.1708    0.0000 C   0  0  0  0  0  0           0  0  0
    0.7417   -0.2417    0.0000 C   0  0  0  0  0  0           0  0  0
   -5.4750   -0.1750    0.0000 C   0  0  0  0  0  0           0  0  0
   -5.4833    0.5625    0.0000 C   0  0  0  0  0  0           0  0  0
  2  1  1  0     0  0
  3  2  2  0     0  0
  4  3  1  0     0  0
  5  4  1  0     0  0
  6 14  1  0     0  0
  7  6  1  0     0  0
  8  1  2  0     0  0
  9  1  2  0     0  0
 10  7  2  0     0  0
 11  1  1  0     0  0
 12  5  1  0     0  0
 13  6  1  0     0  0
 14 17  1  0     0  0
 15 13  1  0     0  0
 16 35  1  0     0  0
 17 16  1  0     0  0
 18 25  1  0     0  0
 19 29  1  0     0  0
 20  3  1  0     0  0
 21  2  1  0     0  0
 22 15  2  0     0  0
 23 15  1  0     0  0
 24 22  1  0     0  0
 25 23  2  0     0  0
 26 28  1  0     0  0
 27 18  1  0     0  0
 28 20  2  0     0  0
 29 21  2  0     0  0
 30  7  1  0     0  0
 31 10  1  0     0  0
 32 12  1  0     0  0
 33 12  1  0     0  0
 34 11  1  0     0  0
 35 38  1  0     0  0
 36 16  1  0     0  0
 37 27  1  0     0  0
 38 41  1  0     0  0
 39 34  1  0     0  0
 40 39  1  0     0  0
 41 40  1  0     0  0
 42 30  2  0     0  0
 43 42  1  0     0  0
  4 19  2  0     0  0
 26  5  2  0     0  0
 24 18  2  0     0  0
 31 43  2  0     0  0
M  END