
          11280714572D 1   1.00000     0.00000     0

 34 38  0     0  0            999 V2000
    2.5292   -6.0542    0.0000 C   0  0  0  0  0  0           0  0  0
    3.9667   -1.1042    0.0000 C   0  0  0  0  0  0           0  0  0
    3.2500   -1.5167    0.0000 C   0  0  0  0  0  0           0  0  0
    1.7792   -6.3875    0.0000 N   0  0  0  0  0  0           0  0  0
    1.2292   -5.7750    0.0000 N   0  0  0  0  0  0           0  0  0
    2.5375   -1.1042    0.0000 N   0  0  0  0  0  0           0  0  0
    2.4417   -5.2292    0.0000 N   0  0  0  0  0  0           0  0  0
    1.6417   -5.0625    0.0000 N   0  0  0  0  0  0           0  0  0
    3.2500    0.1333    0.0000 N   0  0  0  0  0  0           0  0  0
    3.2500   -6.4625    0.0000 C   0  0  0  0  0  0           0  0  0
    3.9667   -0.2792    0.0000 C   0  0  0  0  0  0           0  0  0
    4.6792   -1.5167    0.0000 C   0  0  0  0  0  0           0  0  0
    2.5375   -0.2792    0.0000 C   0  0  0  0  0  0           0  0  0
    3.9667   -6.0500    0.0000 C   0  0  0  0  0  0           0  0  0
    5.3917   -1.1000    0.0000 C   0  0  0  0  0  0           0  0  0
    6.1125   -1.5042    0.0000 C   0  0  0  0  0  0           0  0  0
    3.2500   -2.3417    0.0000 N   0  0  0  0  0  0           0  0  0
    3.9667   -5.2292    0.0000 C   0  0  0  0  0  0           0  0  0
    4.6750    0.1375    0.0000 C   0  0  0  0  0  0           0  0  0
    6.1167   -2.3292    0.0000 O   0  0  0  0  0  0           0  0  0
    5.3917   -0.2667    0.0000 C   0  0  0  0  0  0           0  0  0
    4.6792   -4.8125    0.0000 C   0  0  0  0  0  0           0  0  0
    3.2500   -4.8167    0.0000 C   0  0  0  0  0  0           0  0  0
    3.9667   -2.7542    0.0000 C   0  0  0  0  0  0           0  0  0
    6.8250   -1.0917    0.0000 O   0  0  0  0  0  0           0  0  0
    3.9667   -3.5792    0.0000 C   0  0  0  0  0  0           0  0  0
    3.2500   -3.9917    0.0000 C   0  0  0  0  0  0           0  0  0
    4.6792   -3.9917    0.0000 C   0  0  0  0  0  0           0  0  0
    3.2500   -7.2875    0.0000 C   0  0  0  0  0  0           0  0  0
    4.6792   -6.4542    0.0000 C   0  0  0  0  0  0           0  0  0
    1.8250    0.1333    0.0000 C   0  0  0  0  0  0           0  0  0
    1.8250    0.9583    0.0000 C   0  0  0  0  0  0           0  0  0
    4.6792   -7.2792    0.0000 C   0  0  0  0  0  0           0  0  0
    3.9667   -7.7000    0.0000 C   0  0  0  0  0  0           0  0  0
  2  3  2  0     0  0
  3 17  1  0     0  0
  4  1  1  0     0  0
  5  4  2  0     0  0
  6  3  1  0     0  0
  7  1  2  0     0  0
  8  7  1  0     0  0
  9 13  1  0     0  0
 10  1  1  0     0  0
 11  2  1  0     0  0
 12  2  1  0     0  0
 13  6  2  0     0  0
 14 10  2  0     0  0
 15 12  2  0     0  0
 16 15  1  0     0  0
 17 24  1  0     0  0
 18 14  1  0     0  0
 19 11  1  0     0  0
 20 16  2  0     0  0
 21 15  1  0     0  0
 22 18  1  0     0  0
 23 18  2  0     0  0
 24 26  1  0     0  0
 25 16  1  0     0  0
 26 27  2  0     0  0
 27 23  1  0     0  0
 28 22  2  0     0  0
 29 10  1  0     0  0
 30 14  1  0     0  0
 31 13  1  0     0  0
 32 31  1  0     0  0
 33 34  1  0     0  0
 34 29  2  0     0  0
  5  8  1  0     0  0
 30 33  2  0     0  0
 26 28  1  0     0  0
  9 11  2  0     0  0
 19 21  2  0     0  0
M  END