
  SciTegic02271515152D

 89 89  0  0  0  0            999 V2000
    8.4365   -3.5632    0.0000 O   0  0
    8.5331   -5.9744    0.0000 C   0  0
    7.8196   -3.9190    0.0000 O   0  0
    7.8196   -6.3923    0.0000 C   0  0
    6.3868   -6.3923    0.0000 C   0  0
    7.1042   -5.9744    0.0000 C   0  0
    6.3868   -3.9190    0.0000 C   0  0
    5.6777   -5.9744    0.0000 O   0  0
    3.5307   -3.9190    0.0000 C   0  0
    4.2370   -2.6758    0.0000 C   0  0
    4.2370   -3.5087    0.0000 C   0  0
    4.9547   -3.9190    0.0000 C   0  0
    3.5307   -4.7389    0.0000 C   0  0
    4.9535   -7.5746    0.0000 O   0  0
    3.5719   -6.7045    0.0000 C   0  0
    2.1505   -6.6687    0.0000 C   0  0
    2.8473   -7.0975    0.0000 C   0  0
    2.8265   -7.9211    0.0000 C   0  0
    2.8205   -9.5901    0.0000 C   0  0
    4.2370  -10.4103    0.0000 O   0  0
    4.9547   -8.3506    0.0000 C   0  0
    6.3868   -8.3506    0.0000 O   0  0
    7.1042  -10.4103    0.0000 C   0  0
    8.5331  -10.4103    0.0000 O   0  0
    7.8196   -8.3506    0.0000 C   0  0
    8.5331   -7.1122    0.0000 C   0  0
    8.5331   -7.9403    0.0000 C   0  0
    9.2509   -8.3506    0.0000 C   0  0
    9.9611  -10.4103    0.0000 C   0  0
   10.6749   -8.3506    0.0000 O   0  0
   12.1061  -10.8328    0.0000 C   0  0
   10.6749  -10.8328    0.0000 C   0  0
   11.3929  -10.4103    0.0000 C   0  0
   12.8246  -10.4103    0.0000 O   0  0
   14.3667   -7.6859    0.0000 C   0  0
   14.2527   -5.9744    0.0000 O   0  0
   13.5663   -5.5369    0.0000 C   0  0
   13.5344   -4.7389    0.0000 C   0  0
   12.1061   -3.9190    0.0000 O   0  0
    9.9611   -5.9744    0.0000 O   0  0
    9.9611   -5.1536    0.0000 C   0  0
   12.1061   -6.3923    0.0000 C   0  0
   11.3929   -5.9744    0.0000 C   0  0
   11.3929   -5.1536    0.0000 C   0  0  1  0  0  0
   12.1061   -4.7389    0.0000 C   0  0
   12.8246   -5.1536    0.0000 N   0  0
   12.8246   -5.9744    0.0000 C   0  0  1  0  0  0
   13.5344   -6.3923    0.0000 C   0  0
   13.5344   -7.6859    0.0000 N   0  0
   14.2516  -10.4479    0.0000 C   0  0
   14.9661   -9.1798    0.0000 C   0  0
   14.2527   -9.5901    0.0000 C   0  0  2  0  0  0
   13.5344   -9.1798    0.0000 C   0  0  1  0  0  0
   12.8246   -9.5901    0.0000 C   0  0
   12.1061   -9.1798    0.0000 N   0  0
   11.3929   -9.5901    0.0000 C   0  0  2  0  0  0
   10.6749   -9.1798    0.0000 C   0  0
    9.9611   -9.5901    0.0000 N   0  0
    9.2509   -9.1798    0.0000 C   0  0  2  0  0  0
    8.5331   -9.5901    0.0000 C   0  0
    7.8196   -9.1798    0.0000 N   0  0
    7.1042   -9.5901    0.0000 C   0  0  2  0  0  0
    6.3868   -9.1798    0.0000 C   0  0
    5.6777   -9.5901    0.0000 N   0  0
    4.9547   -9.1798    0.0000 C   0  0  1  0  0  0
    4.2370   -9.5901    0.0000 C   0  0
    3.5307   -9.1798    0.0000 N   0  0
    3.5307   -8.3506    0.0000 C   0  0  2  0  0  0
    4.2370   -7.9893    0.0000 C   0  0
    4.2370   -5.1536    0.0000 N   0  0
    4.9547   -4.7389    0.0000 C   0  0  2  0  0  0
    5.6777   -5.1536    0.0000 C   0  0
    6.3868   -4.7389    0.0000 N   0  0
    7.1042   -5.1536    0.0000 C   0  0  2  0  0  0
    7.8196   -4.7389    0.0000 C   0  0
    8.5331   -5.1536    0.0000 N   0  0
    9.2509   -4.7389    0.0000 C   0  0  1  0  0  0
   10.6749   -3.9190    0.0000 C   0  0
    8.5331   -1.0225    0.0000 C   0  0
    9.2509   -1.4328    0.0000 C   0  0
    9.2509   -2.2566    0.0000 C   0  0
    9.9611   -2.6757    0.0000 C   0  0
    9.9611   -3.5087    0.0000 C   0  0  2  0  0  0
    9.2509   -3.9190    0.0000 C   0  0  1  0  0  0
   10.6749   -4.7393    0.0000 N   0  0
   15.7097   -9.6109    0.0000 O   0  0
   15.7082  -10.4703    0.0000 C   0  0
    8.3848   -4.2390    0.0000 H   0  0
   13.5370  -10.1798    0.0000 H   0  0
 84 83  1  0
 77 84  1  0
 84  1  1  6
 83 82  1  0
 83 78  1  1
 82 81  1  0
 81 80  2  0
 80 79  1  0
 77 76  1  0
 77 41  1  0
 75 76  1  0
 76  2  1  0
 74 75  1  0
 75  3  2  0
 73 74  1  0
 74  6  1  6
 72 73  1  0
 73  7  1  0
 71 72  1  0
 72  8  2  0
 70 71  1  0
 71 12  1  1
 70 69  1  0
 70 13  1  0
 68 69  1  0
 69 14  2  0
 67 68  1  0
 68 18  1  1
 66 67  1  0
 67 19  1  0
 65 66  1  0
 66 20  2  0
 64 65  1  0
 65 21  1  1
 63 64  1  0
 62 63  1  0
 63 22  2  0
 61 62  1  0
 62 23  1  1
 60 61  1  0
 59 60  1  0
 60 24  2  0
 58 59  1  0
 59 28  1  6
 57 58  1  0
 58 29  1  0
 56 57  1  0
 57 30  2  0
 55 56  1  0
 56 33  1  1
 54 55  1  0
 54 53  1  0
 54 34  2  0
 53 52  1  0
 53 49  1  0
 52 51  1  0
 52 50  1  1
 48 49  1  0
 49 35  1  0
 47 48  1  0
 48 36  2  0
 46 47  1  0
 47 37  1  1
 45 46  1  0
 46 38  1  0
 44 45  1  0
 45 39  2  0
 44 43  1  6
 85 44  1  0
 43 42  1  0
 41 40  2  0
 41 85  1  0
 33 32  1  0
 33 31  1  0
 28 27  1  0
 27 26  1  0
 27 25  1  0
 18 17  1  0
 17 16  1  0
 17 15  1  0
 12 11  1  0
 11 10  1  0
 11  9  1  0
  6  5  1  0
  6  4  1  0
 51 86  1  0
 86 87  1  0
 77 88  1  6
 53 89  1  6
M  STY  1   1 SUP
M  SLB  1   1   1
M  SAL   1  1  85
M  SBL   1  2  69  72
M  SMT   1 N
M  END