
          11280715012D 1   1.00000     0.00000     0

 40 43  0     1  0            999 V2000
    4.4417   -4.7500    0.0000 N   0  0  0  0  0  0           0  0  0
    4.8292   -4.2792    0.0000 C   0  0  0  0  0  0           0  0  0
    4.7792   -5.2500    0.0000 C   0  0  1  0  0  0           0  0  0
    5.3917   -4.5000    0.0000 O   0  0  0  0  0  0           0  0  0
    4.7417   -5.8500    0.0000 C   0  0  0  0  0  0           0  0  0
    4.8292   -1.8792    0.0000 C   0  0  0  0  0  0           0  0  0
    4.8417   -3.6792    0.0000 C   0  0  0  0  0  0           0  0  0
    5.3542   -5.1000    0.0000 C   0  0  0  0  0  0           0  0  0
    4.8292   -2.4792    0.0000 C   0  0  0  0  0  0           0  0  0
    6.3792    0.8458    0.0000 C   0  0  0  0  0  0           0  0  0
    4.3167   -1.5792    0.0000 C   0  0  0  0  0  0           0  0  0
    4.2042   -6.1167    0.0000 O   0  0  0  0  0  0           0  0  0
    5.3542   -1.5792    0.0000 C   0  0  0  0  0  0           0  0  0
    3.7917   -0.6792    0.0000 N   0  0  0  0  0  0           0  0  0
    6.9042    1.1500    0.0000 O   0  0  0  0  0  0           0  0  0
    5.3542   -3.3750    0.0000 C   0  0  0  0  0  0           0  0  0
    4.3167   -3.3792    0.0000 C   0  0  0  0  0  0           0  0  0
    5.3542   -2.7792    0.0000 C   0  0  0  0  0  0           0  0  0
    4.3167   -2.7792    0.0000 C   0  0  0  0  0  0           0  0  0
    5.2417   -6.1792    0.0000 N   0  0  0  0  0  0           0  0  0
    5.8542    1.1458    0.0000 O   0  0  0  0  0  0           0  0  0
    4.3167   -0.9792    0.0000 C   0  0  0  0  0  0           0  0  0
    6.3875    0.2375    0.0000 C   0  0  0  0  0  0           0  0  0
    3.2667   -0.9792    0.0000 C   0  0  0  0  0  0           0  0  0
    4.0667   -8.5125    0.0000 C   0  0  3  0  0  0           0  0  0
    5.3500   -0.9792    0.0000 C   0  0  0  0  0  0           0  0  0
    3.7917   -1.8792    0.0000 C   0  0  0  0  0  0           0  0  0
    5.2167   -6.7750    0.0000 C   0  0  0  0  0  0           0  0  0
    4.1042   -7.9125    0.0000 C   0  0  0  0  0  0           0  0  0
    3.5292   -8.7750    0.0000 C   0  0  0  0  0  0           0  0  0
    4.5667   -8.8375    0.0000 C   0  0  0  0  0  0           0  0  0
    5.8667   -0.0667    0.0000 C   0  0  0  0  0  0           0  0  0
    5.8667   -0.6667    0.0000 C   0  0  0  0  0  0           0  0  0
    4.6667   -7.0417    0.0000 C   0  0  0  0  0  0           0  0  0
    4.6417   -7.6417    0.0000 C   0  0  0  0  0  0           0  0  0
    3.2667   -1.5792    0.0000 C   0  0  0  0  0  0           0  0  0
    3.4917   -9.3750    0.0000 C   0  0  0  0  0  0           0  0  0
    4.5292   -9.4375    0.0000 C   0  0  0  0  0  0           0  0  0
    3.9917   -9.7042    0.0000 C   0  0  0  0  0  0           0  0  0
    4.1792   -5.2500    0.0000 H   0  0  0  0  0  0           0  0  0
  2  1  2  0     0  0
  3  1  1  0     0  0
  4  2  1  0     0  0
  5  3  1  0     0  0
  6  9  1  0     0  0
  7  2  1  0     0  0
  8  3  1  0     0  0
  9 19  2  0     0  0
 10 23  1  0     0  0
 11  6  1  0     0  0
 12  5  2  0     0  0
 13  6  2  0     0  0
 14 22  2  0     0  0
 15 10  2  0     0  0
 16  7  1  0     0  0
 17  7  2  0     0  0
 18 16  2  0     0  0
 19 17  1  0     0  0
 20  5  1  0     0  0
 21 10  1  0     0  0
 22 11  1  0     0  0
 23 32  1  0     0  0
 24 36  2  0     0  0
 25 29  1  0     0  0
 26 13  1  0     0  0
 27 11  2  0     0  0
 28 20  1  0     0  0
 29 35  1  0     0  0
 30 25  1  0     0  0
 31 25  1  0     0  0
 32 33  1  0     0  0
 33 26  1  0     0  0
 34 28  1  0     0  0
 35 34  1  0     0  0
 36 27  1  0     0  0
 37 30  1  0     0  0
 38 31  1  0     0  0
 39 38  1  0     0  0
  3 40  1  1     0  0
  4  8  1  0     0  0
  9 18  1  0     0  0
 24 14  1  0     0  0
 37 39  1  0     0  0
M  END