
  SciTegic10311217562D

 44 42  0  0  0  0            999 V2000
   -2.9708   -3.4000    0.0000 Na  0  3
   -0.5041   -0.7750    0.0000 C   0  0  2  0  0  0
   -0.5041   -1.6000    0.0000 C   0  0  1  0  0  0
    0.2079   -2.0084    0.0000 C   0  0  2  0  0  0
    0.9199   -1.6000    0.0000 O   0  0
    0.9199   -0.7750    0.0000 C   0  0  1  0  0  0
    0.2079   -0.3584    0.0000 C   0  0  1  0  0  0
    1.6356   -0.3646    0.0000 C   0  0
   -1.2198   -0.3646    0.0000 O   0  0
   -1.2180   -2.0136    0.0000 O   0  0
    0.2079    0.4666    0.0000 O   0  0
    0.2079   -2.8334    0.0000 O   0  0
    2.3488   -0.7792    0.0000 N   0  0
    0.9224   -3.2459    0.0000 C   0  0
    3.0645   -0.3688    0.0000 C   0  0
    3.7778   -0.7834    0.0000 C   0  0
    3.0669    0.4562    0.0000 O   0  0
    4.4935   -0.3730    0.0000 N   0  0
    5.2067   -0.7876    0.0000 C   0  0
    5.9224   -0.3772    0.0000 O   0  0
   -0.5066    0.8791    0.0000 S   0  0
   -1.2211    0.4666    0.0000 O   0  5
   -0.9250    1.5958    0.0000 O   0  0
   -0.1000    1.5958    0.0000 O   0  0
   -1.9331   -0.7792    0.0000 S   0  0
   -2.6487   -0.3688    0.0000 O   0  5
   -2.3500   -1.4917    0.0000 O   0  0
   -1.5250   -1.4917    0.0000 O   0  0
   -1.2168   -2.8386    0.0000 S   0  0
   -1.9307   -3.2521    0.0000 O   0  5
   -0.3958   -2.8375    0.0000 O   0  0
   -0.8125   -3.5500    0.0000 O   0  0
    4.4947    0.4497    0.0000 C   0  0
    5.2043   -1.6126    0.0000 C   0  0
    5.2098    0.8611    0.0000 C   0  0
    5.9176   -2.0272    0.0000 C   0  0
    5.9151   -2.8522    0.0000 C   0  0
    5.1977   -3.2574    0.0000 C   0  0
    5.1949   -4.0816    0.0000 C   0  0
    5.9087   -4.4970    0.0000 C   0  0
    6.6268   -4.0822    0.0000 C   0  0
    6.6260   -3.2593    0.0000 C   0  0
   -3.4708    1.0042    0.0000 Na  0  3
   -3.7833   -1.0583    0.0000 Na  0  3
  4 12  1  6
 21 23  2  0
  5  6  1  0
 21 24  2  0
  8 13  1  0
  9 25  1  0
  6  7  1  0
 25 26  1  0
 12 14  1  0
 25 27  2  0
 25 28  2  0
 13 15  1  0
  6  8  1  1
 10 29  1  0
 15 16  1  0
 29 30  1  0
  2  3  1  0
 29 31  2  0
 15 17  2  0
 29 32  2  0
  2  9  1  1
 16 18  1  0
 18 33  1  0
  2  7  1  0
 19 34  1  0
 18 19  1  0
 33 35  1  0
  3 10  1  1
 34 36  1  0
 19 20  2  0
 36 37  1  0
  3  4  1  0
 37 38  2  0
 11 21  1  0
 38 39  1  0
  7 11  1  6
 39 40  2  0
 21 22  1  0
 40 41  1  0
  4  5  1  0
 41 42  2  0
 42 37  1  0
M  CHG  6   1   1  22  -1  26  -1  30  -1  43   1  44   1
M  END