
  SciTegic02011310402D

 29 32  0  0  0  0            999 V2000
   16.9027   -3.5916    0.0000 C   0  0
   16.9016   -4.4190    0.0000 N   0  0
   17.6164   -4.8319    0.0000 C   0  0
   17.6146   -3.1789    0.0000 C   0  0
   18.3300   -3.5880    0.0000 C   0  0
   18.3288   -4.4211    0.0000 C   0  0
   19.0457   -4.8363    0.0000 C   0  0
   19.7683   -4.4231    0.0000 N   0  0
   19.7695   -3.5901    0.0000 N   0  0
   19.0481   -3.1702    0.0000 C   0  0
   19.0433   -5.6613    0.0000 C   0  0
   18.3277   -6.0718    0.0000 C   0  0
   17.6171   -5.6525    0.0000 C   0  0
   16.9019   -6.0623    0.0000 C   0  0
   16.8992   -6.8882    0.0000 C   0  0
   17.6175   -7.3026    0.0000 C   0  0
   18.3297   -6.8904    0.0000 C   0  0
   16.1841   -7.2996    0.0000 Cl  0  0
   19.0481   -2.3452    0.0000 O   0  0
   20.4850   -3.1793    0.0000 C   0  0
   21.1985   -3.5936    0.0000 C   0  0  1  0  0  0
   21.2113   -4.4157    0.0000 C   0  0
   22.0007   -4.6558    0.0000 C   0  0
   22.4729   -3.9792    0.0000 C   0  0
   21.9753   -3.3213    0.0000 N   0  0
   22.3952   -2.6111    0.0000 C   0  0
   23.2201   -2.6197    0.0000 C   0  0
   23.6252   -3.3384    0.0000 O   0  0
   24.4501   -3.3469    0.0000 C   0  0
 13 14  1  0
  1  2  2  0
 14 15  2  0
  5  4  2  0
 15 16  1  0
  4  1  1  0
 16 17  2  0
 17 12  1  0
  5 10  1  0
 15 18  1  0
  6  7  1  0
 10 19  2  0
  7  8  2  0
  9 20  1  0
  8  9  1  0
 21 20  1  6
 21 22  1  0
  9 10  1  0
  5  6  1  0
  7 11  1  0
 22 23  1  0
 23 24  1  0
 24 25  1  0
 25 21  1  0
 11 12  1  0
 25 26  1  0
  2  3  1  0
 26 27  1  0
 12 13  2  0
 27 28  1  0
  3  6  2  0
 28 29  1  0
M  END