
  CDK    12/20/10,15:21

 29 31  0  0  0  0  0  0  0  0999 V2000
   -0.0569   -1.6123    0.0000 N   0  0  0  0  0  0  0  0  0  0  0  0
   -0.8806   -1.6123    0.0000 C   0  0  0  0  0  0  0  0  0  0  0  0
   -1.5759    0.4138    0.0000 C   0  0  0  0  0  0  0  0  0  0  0  0
   -1.2914   -0.9009    0.0000 C   0  0  0  0  0  0  0  0  0  0  0  0
   -0.9527   -0.1449    0.0000 C   0  0  0  0  0  0  0  0  0  0  0  0
   -2.2964   -0.0135    0.0000 N   0  0  0  0  0  0  0  0  0  0  0  0
   -2.1180   -0.8224    0.0000 N   0  0  0  0  0  0  0  0  0  0  0  0
   -3.0516    0.3141    0.0000 C   0  0  0  0  0  0  0  0  0  0  0  0
   -3.1455    1.1319    0.0000 C   0  0  0  0  0  0  0  0  0  0  0  0
   -3.9005    1.4595    0.0000 C   0  0  0  0  0  0  0  0  0  0  0  0
   -3.9944    2.2773    0.0000 C   0  0  0  0  0  0  0  0  0  0  0  0
   -1.2931   -2.3267    0.0000 O   0  0  0  0  0  0  0  0  0  0  0  0
   -1.4959    1.2331    0.0000 C   0  0  0  0  0  0  0  0  0  0  0  0
   -0.7324    1.5782    0.0000 C   0  0  0  0  0  0  0  0  0  0  0  0
   -0.6508    2.4101    0.0000 C   0  0  0  0  0  0  0  0  0  0  0  0
   -1.3318    2.8979    0.0000 C   0  0  0  0  0  0  0  0  0  0  0  0
   -2.0965    2.5477    0.0000 C   0  0  0  0  0  0  0  0  0  0  0  0
   -2.1745    1.7168    0.0000 C   0  0  0  0  0  0  0  0  0  0  0  0
   -4.7544    2.6069    0.0000 C   0  0  0  0  0  0  0  0  0  0  0  0
    0.3573   -2.3298    0.0000 C   0  0  0  0  0  0  0  0  0  0  0  0
    1.1857   -2.3298    0.0000 C   0  0  0  0  0  0  0  0  0  0  0  0
   -0.0569   -3.0473    0.0000 C   0  0  0  0  0  0  0  0  0  0  0  0
    0.7657   -3.0417    0.0000 C   0  0  0  0  0  0  0  0  0  0  0  0
    0.3504   -3.7509    0.0000 C   0  0  0  0  0  0  0  0  0  0  0  0
    0.7581   -4.4623    0.0000 C   0  0  0  0  0  0  0  0  0  0  0  0
    1.5797   -4.4650    0.0000 C   0  0  0  0  0  0  0  0  0  0  0  0
    1.9919   -3.7504    0.0000 C   0  0  0  0  0  0  0  0  0  0  0  0
    1.5818   -3.0419    0.0000 C   0  0  0  0  0  0  0  0  0  0  0  0
    1.9928   -5.1831    0.0000 F   0  0  0  0  0  0  0  0  0  0  0  0
  2 12  2  0  0  0  0 
 13 14  2  0  0  0  0 
 14 15  1  0  0  0  0 
 15 16  2  0  0  0  0 
 16 17  1  0  0  0  0 
 17 18  2  0  0  0  0 
 18 13  1  0  0  0  0 
  3 13  1  0  0  0  0 
  2  1  1  0  0  0  0 
 11 19  1  0  0  0  0 
  6  7  1  0  0  0  0 
  1 20  1  0  0  0  0 
  5  3  1  0  0  0  0 
 20 21  1  0  0  0  0 
  4  5  1  0  0  0  0 
 20 22  1  0  0  0  0 
  3  6  1  0  0  0  0 
 20 23  1  0  0  0  0 
  7  4  2  0  0  0  0 
 23 24  2  0  0  0  0 
  6  8  1  0  0  0  0 
 24 25  1  0  0  0  0 
  8  9  1  0  0  0  0 
 25 26  2  0  0  0  0 
  9 10  1  0  0  0  0 
 26 27  1  0  0  0  0 
 10 11  1  0  0  0  0 
 27 28  2  0  0  0  0 
 28 23  1  0  0  0  0 
  4  2  1  0  0  0  0 
 26 29  1  0  0  0  0 
M  END