
  SciTegic09261414462D

141149  0  0  0  0            999 V2000
    3.1951   -5.9423    0.0000 C   0  0
    3.1571   -8.3887    0.0000 C   0  0
    5.2982   -7.2010    0.0000 C   0  0
    4.6065   -5.9604    0.0000 C   0  0
    4.5743   -8.4178    0.0000 C   0  0
    1.7510   -7.5498    0.0000 C   0  0
    3.8769   -7.1768    0.0000 C   0  0
    3.1678   -7.5738    0.0000 C   0  0
    5.5174   -6.4142    0.0000 C   0  0
    4.9429   -5.8310    0.0000 O   0  0
    3.9294   -3.8933    0.0000 O   0  0
    3.8932   -6.3604    0.0000 C   0  0
    5.2790   -8.8367    0.0000 C   0  0
    6.3091   -6.2063    0.0000 O   0  0
    2.4727   -6.3343    0.0000 O   0  0
    3.9212   -4.7197    0.0000 C   0  0
    3.2044   -5.1215    0.0000 C   0  0
    5.9856   -8.4421    0.0000 C   0  0
    4.6229   -5.1441    0.0000 C   0  0
    4.5833   -7.5980    0.0000 C   0  0
    6.6866   -8.8588    0.0000 N   0  0
    1.0118   -8.7654    0.0000 O   0  0
    2.4655   -7.1516    0.0000 C   0  0
    2.4362   -8.7867    0.0000 C   0  0
    1.7379   -8.3686    0.0000 C   0  0
    6.0028   -7.6221    0.0000 C   0  0
    7.3994   -8.4592    0.0000 C   0  0
    8.1019   -8.8768    0.0000 N   0  0
    7.4098   -7.6421    0.0000 S   0  0
   27.2022  -11.4151    0.0000 C   0  0
   18.0049   -6.7799    0.0000 C   0  0
    9.4541   -6.5419    0.0000 O   0  0
   34.3821   -7.7345    0.0000 C   0  0
   14.1657   -8.4876    0.0000 N   0  0
    9.4533   -8.8775    0.0000 C   0  0
   27.6398   -7.7315    0.0000 O   0  0
   27.4385  -12.1595    0.0000 C   0  0
   31.0177   -6.5701    0.0000 C   0  0
   21.5804   -8.8913    0.0000 C   0  0
   29.6673   -9.6795    0.0000 O   0  0
   24.2760   -8.8909    0.0000 N   0  0
   27.6398   -8.5053    0.0000 C   0  0
   30.3420   -7.7352    0.0000 C   0  0
   23.6005  -10.8371    0.0000 C   0  0
   24.5550   -6.4757    0.0000 C   0  0
   13.4934   -8.8807    0.0000 C   0  0
   20.9049   -8.4965    0.0000 C   0  0  1  0  0  0
    9.4533   -9.6528    0.0000 O   0  0
   32.3588   -8.9016    0.0000 N   0  0
   10.8015   -9.6546    0.0000 C   0  0
   24.2728  -11.2261    0.0000 O   0  0
   25.6238   -9.6742    0.0000 O   0  0
   12.8179   -8.4859    0.0000 C   0  0  2  0  0  0
   11.4745   -7.7101    0.0000 O   0  0
    8.7748   -7.7066    0.0000 C   0  0
   12.1438   -9.6562    0.0000 C   0  0
    9.4541   -7.3200    0.0000 C   0  0
   20.2294   -9.6653    0.0000 N   0  0
   14.8412   -9.6599    0.0000 C   0  0
   26.2961   -8.5036    0.0000 N   0  0
   25.6238   -8.8926    0.0000 C   0  0
   28.2004  -12.3189    0.0000 C   0  0
   29.6693   -6.5683    0.0000 C   0  0
   21.5804   -9.6688    0.0000 O   0  0
   11.4742  -10.0437    0.0000 C   0  0
   18.8846   -9.6653    0.0000 C   0  0
   28.8725  -10.3240    0.0000 N   0  0
   18.8846   -8.8878    0.0000 C   0  0  1  0  0  0
   28.3194   -8.8962    0.0000 N   0  0
   31.0167   -7.3461    0.0000 C   0  0
   22.2557   -7.7226    0.0000 C   0  0
   23.6005  -10.0555    0.0000 C   0  0
   24.5562   -7.8224    0.0000 C   0  0
   16.1932   -8.8843    0.0000 N   0  0
   28.9918   -7.7333    0.0000 C   0  0
   17.8088   -7.5287    0.0000 C   0  0
   22.9282   -8.8932    0.0000 C   0  0  1  0  0  0
   33.7066   -6.5741    0.0000 C   0  0
   29.6673   -8.8980    0.0000 C   0  0
   34.3789   -8.5143    0.0000 O   0  0
   10.8015   -8.8778    0.0000 C   0  0  1  0  0  0
   19.5571  -10.8317    0.0000 O   0  0
   22.9282   -9.6706    0.0000 C   0  0
   27.6398  -10.0608    0.0000 C   0  0
   24.9422   -5.8020    0.0000 C   0  0
   12.1456   -7.3270    0.0000 C   0  0
   13.4934   -9.6581    0.0000 O   0  0
   17.5368   -8.8860    0.0000 C   0  0
   16.4662   -7.8141    0.0000 C   0  0
   33.7066   -8.9034    0.0000 C   0  0
   20.2325   -8.8896    0.0000 N   0  0
   23.6005   -7.7261    0.0000 O   0  0
   28.7261  -11.7422    0.0000 C   0  0
   28.3525   -9.7501    0.0000 C   0  0
   28.9918   -8.5072    0.0000 C   0  0  1  0  0  0
   10.1295   -7.7066    0.0000 N   0  0
   31.6875   -7.7368    0.0000 O   0  0
   13.4934   -7.3253    0.0000 O   0  0
   20.9049   -7.7226    0.0000 C   0  0
   15.5177   -7.7154    0.0000 O   0  0
   31.6875   -8.5107    0.0000 C   0  0
   31.0151   -9.6814    0.0000 C   0  0
   19.5571   -8.4946    0.0000 C   0  0
   31.0151   -8.8997    0.0000 C   0  0  2  0  0  0
   19.5571  -10.0501    0.0000 C   0  0
   21.5804   -6.5579    0.0000 C   0  0
   24.5538   -5.1290    0.0000 C   0  0
   12.8165  -10.8231    0.0000 C   0  0
   26.9675   -8.8944    0.0000 C   0  0  1  0  0  0
   24.9435   -7.1487    0.0000 C   0  0
   16.8614   -8.4911    0.0000 C   0  0  2  0  0  0
   29.6673   -7.3426    0.0000 C   0  0
   17.0584   -7.7348    0.0000 C   0  0
   19.5571   -7.7208    0.0000 O   0  0
   12.8179   -7.7119    0.0000 C   0  0  1  0  0  0
   22.9250  -11.2278    0.0000 O   0  0
   12.1418  -11.2123    0.0000 C   0  0
   17.5368   -9.6635    0.0000 O   0  0
    8.7748   -8.4833    0.0000 C   0  0  2  0  0  0
   12.8175  -10.0471    0.0000 C   0  0
   24.9483   -8.5018    0.0000 C   0  0  1  0  0  0
   15.5177   -8.4893    0.0000 C   0  0
   23.6005   -8.5000    0.0000 C   0  0
   18.2092   -8.4929    0.0000 N   0  0
   26.9675   -9.6760    0.0000 C   0  0
   25.4986   -7.9434    0.0000 C   0  0
   11.4745   -8.4843    0.0000 C   0  0
   21.5804   -7.3319    0.0000 C   0  0
   28.4815  -11.0019    0.0000 C   0  0
   30.3396   -8.5090    0.0000 N   0  0
   27.7195  -10.8384    0.0000 C   0  0
   10.1272   -8.4835    0.0000 N   0  0
   12.1455   -8.8790    0.0000 N   0  0
   33.7066   -7.3479    0.0000 C   0  0
   33.0311   -8.5125    0.0000 C   0  0  2  0  0  0
   22.2527   -8.4983    0.0000 N   0  0
   14.8412   -8.8825    0.0000 C   0  0  1  0  0  0
   33.7066   -9.6849    0.0000 O   0  0
   11.4722  -10.8213    0.0000 C   0  0
   30.3441   -6.1749    0.0000 C   0  0
   33.0311   -7.7345    0.0000 C   0  0
 25 24  1  0
  9 10  2  0
 16 19  1  0
 13  5  1  0
 26  3  2  0
 17  1  2  0
  3  9  1  0
  5 20  2  0
 13 18  2  0
 24  2  2  0
 17 16  1  0
  6 25  2  0
  4 12  1  0
  3 20  1  0
  6 23  1  0
 23  8  2  0
  2  8  1  0
 19  4  2  0
 11 16  2  0
 12  7  2  0
  9 14  1  0
 23 15  1  0
  8  7  1  0
  1 12  1  0
 22 25  1  0
 15  1  1  0
 18 21  1  0
 20  7  1  0
 18 26  1  0
 21 27  1  0
 27 28  1  0
 27 29  2  0
111 88  1  0
 50 65  1  0
 69 95  1  0
 43 70  2  0
 66105  1  0
 81127  1  0
 70 38  1  0
128106  1  0
 42 69  1  0
 53133  1  1
 46 87  2  0
135141  1  1
 79130  1  0
119 55  1  1
127 54  2  0
 65 56  1  0
110 45  1  0
 46 34  1  0
 44 51  2  0
 35 48  2  0
127133  1  0
 90138  2  0
 56120  2  0
 88124  1  0
 77123  1  0
 84131  1  0
140 63  1  0
 83 72  1  0
122 74  1  0
130104  1  0
132 81  1  0
 39 64  2  0
 68103  1  0
121126  1  1
 63112  2  0
 47 39  1  0
128 71  1  0
 38140  2  0
 99128  1  0
 76 31  1  0
 93 62  2  0
 37 30  2  0
 61 52  2  0
129 93  1  0
 79 40  2  0
 68 66  1  6
 47 99  1  1
 35132  1  0
109125  1  6
 28119  1  0
 95 79  1  0
 72 44  1  0
109 42  1  0
125 84  1  0
121 61  1  0
 74111  1  0
115 86  1  0
101 49  1  0
117139  1  0
136 77  1  0
 75112  1  0
141134  1  0
111 89  1  1
 44116  1  0
 45 85  1  0
134 78  1  0
 42 36  2  0
 90 80  1  0
139 65  2  0
 94 84  2  0
134 33  1  0
137 59  1  6
131129  2  0
104102  1  6
 77 83  1  6
 67 94  1  0
 61 60  1  0
 39136  1  0
112 43  1  0
 41121  1  0
 81 50  1  6
108117  2  0
 57 96  1  0
 57 32  2  0
 49135  1  0
 60109  1  0
 62 37  1  0
123 92  2  0
 53115  1  0
135 90  1  0
103114  2  0
 88118  2  0
101 97  2  0
104101  1  0
 95 75  1  1
 85107  2  0
 55 57  1  0
 53 46  1  0
121 73  1  0
 91 47  1  0
105 82  2  0
120108  1  0
 30131  1  0
137122  1  0
 31107  1  0
 73110  1  0
103 91  1  0
 34137  1  0
115 98  1  1
122100  2  0
119 35  1  0
123 41  1  0
129 67  1  0
113 76  1  0
124 68  1  0
111113  1  0
105 58  1  0
M  END