
  SciTegic06061310022D

 40 41  0  0  0  0            999 V2000
    0.0000    0.0000    0.0000 Na  0  3
    5.0972    0.4925    0.0000 C   0  0  1  0  0  0
    4.3827    0.0800    0.0000 C   0  0  1  0  0  0
    4.3827   -0.7450    0.0000 C   0  0  2  0  0  0
    5.0972   -1.1575    0.0000 C   0  0
    5.8116   -0.7450    0.0000 C   0  0  2  0  0  0
    5.8116    0.0800    0.0000 O   0  0
    6.2488   -1.4447    0.0000 O   0  0
    6.6361   -0.7738    0.0000 C   0  0
    7.0733   -0.0742    0.0000 O   0  0
    7.0235   -1.5022    0.0000 O   0  5
    5.0972    1.3175    0.0000 C   0  0  2  0  0  0
    5.8116    1.7300    0.0000 C   0  0  1  0  0  0
    7.9551    1.3175    0.0000 C   0  0
    8.6695    1.7300    0.0000 C   0  0
    7.9551    0.4925    0.0000 O   0  0
    8.6695    2.5550    0.0000 C   0  0
    9.3840    2.9675    0.0000 C   0  0
   10.0985    2.5550    0.0000 C   0  0
   10.0985    1.7300    0.0000 C   0  0
    9.3840    1.3175    0.0000 C   0  0
    6.5261    1.3175    0.0000 C   0  0
    2.9538    0.0800    0.0000 C   0  0
    2.9538   -0.7450    0.0000 O   0  0
    2.2393    0.4925    0.0000 C   0  0
    4.3827    0.9050    0.0000 H   0  0
    5.8615   -2.1731    0.0000 C   0  0
    6.2987   -2.8727    0.0000 C   0  0
    7.1232   -2.8439    0.0000 C   0  0
    7.5604   -3.5436    0.0000 C   0  0
    7.1731   -4.2720    0.0000 C   0  0
    6.3486   -4.3008    0.0000 C   0  0
    5.9114   -3.6012    0.0000 C   0  0
   10.8129    2.9675    0.0000 Cl  0  0
   10.8129    1.3175    0.0000 Cl  0  0
    4.3827    1.7300    0.0000 O   0  0
    5.8116    2.5550    0.0000 O   0  0
    7.2406    1.7300    0.0000 N   0  0
    3.6682   -1.1575    0.0000 O   0  0
    3.6682    0.4925    0.0000 N   0  0
 12 13  1  0
 13 22  1  0
 14 15  1  0
 14 16  2  0
 15 17  2  0
 17 18  1  0
 18 19  2  0
 19 20  1  0
 20 21  2  0
 21 15  1  0
 23 24  2  0
 23 25  1  0
  2 26  1  1
  8 27  1  0
 27 28  1  0
  2  3  1  0
 28 29  2  0
  2  7  1  0
 29 30  1  0
  3  4  1  0
 30 31  2  0
  4  5  1  0
 31 32  1  0
  5  6  1  0
 32 33  2  0
 33 28  1  0
  6  7  1  0
 19 34  1  0
  6  8  1  6
 20 35  1  0
  6  9  1  1
  9 10  2  0
  9 11  1  0
  2 12  1  0
 13 37  1  6
 22 38  1  0
 38 14  1  0
 12 36  1  1
  4 39  1  6
  3 40  1  1
 40 23  1  0
M  CHG  2   1   1  11  -1
M  END