
  SciTegic12181313002D

 11 10  0  0  0  0            999 V2000
   -1.5397   -2.9209    0.0000 N   0  0
   -0.8095   -3.3090    0.0000 C   0  0
   -0.2211   -2.7206    0.0000 Se  0  0
   -1.3978   -2.1073    0.0000 C   0  0
   -0.5841   -1.9946    0.0000 C   0  0
   -0.6843   -4.1227    0.0000 N   0  0
   -0.2003   -1.2643    0.0000 C   0  0
    1.6064   -2.2460    0.0000 Br  0  0
    1.0057   -0.4924    0.0000 N   0  0
   -1.9737   -1.5189    0.0000 C   0  0
    0.6259   -1.2310    0.0000 C   0  0
  2  1  2  0
  3  2  1  0
  4  1  1  0
  5  4  2  0
  6  2  1  0
  7  5  1  0
  9 11  1  0
 10  4  1  0
 11  7  1  0
  3  5  1  0
M  END