
  SciTegic05191616052D

 27 29  0  0  0  0            999 V2000
    2.0498   -7.3836    0.0000 C   0  0
    2.0487   -8.2031    0.0000 C   0  0
    2.7567   -8.6121    0.0000 C   0  0
    2.7549   -6.9747    0.0000 C   0  0
    3.4635   -7.3800    0.0000 C   0  0
    3.4669   -8.2052    0.0000 C   0  0
    4.1793   -8.6126    0.0000 O   0  0
    4.8929   -8.1993    0.0000 C   0  0
    4.8895   -7.3741    0.0000 C   0  0  1  0  0  0
    4.1725   -6.9622    0.0000 O   0  0
    5.5959   -6.9633    0.0000 C   0  0
    6.3049   -7.3697    0.0000 N   0  0
    7.0113   -6.9590    0.0000 C   0  0
    7.7203   -7.3654    0.0000 C   0  0
    8.4267   -6.9546    0.0000 O   0  0
    9.1357   -7.3610    0.0000 C   0  0
    9.1333   -8.1771    0.0000 C   0  0
    9.8415   -8.5834    0.0000 C   0  0
   10.5489   -8.1726    0.0000 C   0  0
    8.4256   -8.5856    0.0000 O   0  0
    7.7179   -8.1769    0.0000 C   0  0
    9.8350   -6.9486    0.0000 C   0  0
   10.5455   -7.3501    0.0000 C   0  0
   11.1470   -6.7985    0.0000 C   0  0
   10.8082   -6.0560    0.0000 C   0  0
    9.9974   -6.1488    0.0000 O   0  0
    6.3436   -9.4060    0.0000 Cl  0  0
  1  2  2  0
  2  3  1  0
  3  6  2  0
  5  4  2  0
  4  1  1  0
  5  6  1  0
  5 10  1  0
  6  7  1  0
  7  8  1  0
  8  9  1  0
  9 10  1  0
  9 11  1  1
 11 12  1  0
 12 13  1  0
 13 14  1  0
 14 15  1  0
 15 16  1  0
 16 17  2  0
 17 18  1  0
 18 19  2  0
 19 23  1  0
 22 16  1  0
 17 20  1  0
 20 21  1  0
 22 23  2  0
 23 24  1  0
 24 25  2  0
 25 26  1  0
 26 22  1  0
M  END