
  SciTegic01161211252D

 32 35  0  0  0  0            999 V2000
   12.8349   -2.0449    0.0000 C   0  0  1  0  0  0
   12.1656   -1.5582    0.0000 O   0  0
   11.4999   -2.0451    0.0000 C   0  0  2  0  0  0
   13.6209   -1.7909    0.0000 N   0  0
   10.7882   -1.6261    0.0000 C   0  0
   14.4064   -0.7107    0.0000 N   0  0
   13.6208   -0.9654    0.0000 C   0  0
   14.8904   -1.3803    0.0000 C   0  0
   14.4014   -2.0450    0.0000 C   0  0
   14.7328   -2.7987    0.0000 N   0  0
   15.5528   -2.8888    0.0000 C   0  0
   16.0403   -2.2191    0.0000 N   0  0
   15.7063   -1.4682    0.0000 C   0  0
   16.1155   -0.7514    0.0000 N   0  0
   16.9404   -0.7474    0.0000 C   0  0
   17.3495   -0.0310    0.0000 O   0  0
   17.3564   -1.4598    0.0000 N   0  0
   18.1813   -1.4559    0.0000 C   0  0
   18.5949   -2.1687    0.0000 C   0  0
   19.4191   -2.1651    0.0000 C   0  0
   19.8289   -1.4482    0.0000 C   0  0
   19.4085   -0.7334    0.0000 C   0  0
   18.5858   -0.7405    0.0000 C   0  0
   12.5781   -2.8290    0.0000 C   0  0  1  0  0  0
   11.7524   -2.8324    0.0000 C   0  0  2  0  0  0
   10.7953   -0.8011    0.0000 N   0  0
   10.0846   -0.3826    0.0000 C   0  0
   10.0917    0.4424    0.0000 O   0  0
    9.3666   -0.7888    0.0000 N   0  0
    8.6558   -0.3703    0.0000 C   0  0
   13.0635   -3.4959    0.0000 O   0  0
   11.2678   -3.4998    0.0000 O   0  0
  4  9  1  0
 14 15  1  0
  8  6  1  0
 15 16  2  0
  6  7  2  0
 15 17  1  0
  7  4  1  0
 17 18  1  0
  3 25  1  0
 18 19  2  0
 19 20  1  0
  8  9  2  0
 20 21  2  0
  1  4  1  1
 21 22  1  0
  9 10  1  0
 22 23  2  0
 23 18  1  0
 24 25  1  0
 24  1  1  0
 10 11  2  0
  3  5  1  1
  5 26  1  0
 11 12  1  0
 26 27  1  0
  1  2  1  0
 27 28  2  0
 12 13  2  0
 27 29  1  0
 13  8  1  0
 29 30  1  0
  2  3  1  0
 24 31  1  6
 13 14  1  0
 25 32  1  6
M  END