
          11280715522D 1   1.00000     0.00000     0

 31 34  0     0  0            999 V2000
   -4.8598  -21.9791    0.0000 C   0  0  0  0  0  0           0  0  0
   -4.8609  -22.8065    0.0000 C   0  0  0  0  0  0           0  0  0
   -4.1461  -23.2194    0.0000 C   0  0  0  0  0  0           0  0  0
   -4.1479  -21.5664    0.0000 C   0  0  0  0  0  0           0  0  0
   -3.4325  -21.9755    0.0000 C   0  0  0  0  0  0           0  0  0
   -3.4318  -22.8023    0.0000 C   0  0  0  0  0  0           0  0  0
   -2.7165  -23.2133    0.0000 N   0  0  0  0  0  0           0  0  0
   -2.0014  -22.7985    0.0000 C   0  0  0  0  0  0           0  0  0
   -2.0062  -21.9686    0.0000 C   0  0  0  0  0  0           0  0  0
   -2.7221  -21.5613    0.0000 N   0  0  0  0  0  0           0  0  0
   -1.2854  -23.2083    0.0000 O   0  0  0  0  0  0           0  0  0
   -1.2943  -21.5517    0.0000 C   0  0  0  0  0  0           0  0  0
   -0.5773  -21.9599    0.0000 N   0  0  0  0  0  0           0  0  0
   -1.2993  -20.7267    0.0000 O   0  0  0  0  0  0           0  0  0
    0.1347  -21.5430    0.0000 C   0  0  0  0  0  0           0  0  0
    0.8494  -21.9546    0.0000 C   0  0  0  0  0  0           0  0  0
    1.5608  -21.5384    0.0000 C   0  0  0  0  0  0           0  0  0
    1.5562  -20.7126    0.0000 C   0  0  0  0  0  0           0  0  0
    0.8343  -20.3046    0.0000 C   0  0  0  0  0  0           0  0  0
    0.1257  -20.7231    0.0000 C   0  0  0  0  0  0           0  0  0
    2.2676  -20.2948    0.0000 O   0  0  0  0  0  0           0  0  0
   -1.2821  -24.0333    0.0000 C   0  0  0  0  0  0           0  0  0
    0.8263  -19.4797    0.0000 C   0  0  0  0  0  0           0  0  0
    1.5368  -19.0603    0.0000 N   0  0  3  0  0  0           0  0  0
    2.2553  -19.4726    0.0000 C   0  0  0  0  0  0           0  0  0
    2.9636  -19.0568    0.0000 C   0  0  0  0  0  0           0  0  0
    2.9600  -18.2314    0.0000 N   0  0  3  0  0  0           0  0  0
    2.2417  -17.8236    0.0000 C   0  0  0  0  0  0           0  0  0
    1.5271  -18.2412    0.0000 C   0  0  0  0  0  0           0  0  0
    3.6720  -17.8148    0.0000 C   0  0  0  0  0  0           0  0  0
   -1.9950  -24.4485    0.0000 C   0  0  0  0  0  0           0  0  0
 13 15  1  0     0  0
  1  2  2  0     0  0
 15 16  2  0     0  0
  7  8  2  0     0  0
 16 17  1  0     0  0
  5  4  2  0     0  0
 17 18  2  0     0  0
  8  9  1  0     0  0
 18 19  1  0     0  0
  4  1  1  0     0  0
 19 20  2  0     0  0
 20 15  1  0     0  0
  9 10  2  0     0  0
 18 21  1  0     0  0
 10  5  1  0     0  0
 11 22  1  0     0  0
 19 23  1  0     0  0
  8 11  1  0     0  0
 23 24  1  0     0  0
 24 25  1  0     0  0
  2  3  1  0     0  0
  9 12  1  0     0  0
  5  6  1  0     0  0
 12 13  1  0     0  0
  3  6  2  0     0  0
 24 29  1  0     0  0
 25 26  1  0     0  0
 26 27  1  0     0  0
 27 28  1  0     0  0
 28 29  1  0     0  0
 12 14  2  0     0  0
 27 30  1  0     0  0
  6  7  1  0     0  0
 22 31  1  0     0  0
M  END