
          11280715042D 1   1.00000     0.00000     0

 14 14  0     0  0            999 V2000
    0.4792   -2.0417    0.0000 S   0  0  3  0  0  0           0  0  0
    2.8750   -2.0250    0.0000 C   0  0  0  0  0  0           0  0  0
    1.0792   -2.0375    0.0000 C   0  0  0  0  0  0           0  0  0
    0.4792   -1.4375    0.0000 O   0  0  0  0  0  0           0  0  0
    0.4792   -2.6375    0.0000 O   0  0  0  0  0  0           0  0  0
    2.2750   -2.0292    0.0000 C   0  0  0  0  0  0           0  0  0
   -0.1208   -2.0292    0.0000 N   0  0  0  0  0  0           0  0  0
    3.1667   -1.5000    0.0000 O   0  0  0  0  0  0           0  0  0
    1.3792   -2.5542    0.0000 C   0  0  0  0  0  0           0  0  0
    1.3750   -1.5167    0.0000 C   0  0  0  0  0  0           0  0  0
    1.9667   -1.5125    0.0000 C   0  0  0  0  0  0           0  0  0
    1.9792   -2.5500    0.0000 C   0  0  0  0  0  0           0  0  0
    3.1792   -2.5417    0.0000 N   0  0  0  0  0  0           0  0  0
    3.7792   -2.5375    0.0000 C   0  0  0  0  0  0           0  0  0
  2  6  1  0     0  0
  3  1  1  0     0  0
  4  1  2  0     0  0
  5  1  2  0     0  0
  6 11  1  0     0  0
  7  1  1  0     0  0
  8  2  2  0     0  0
  9  3  2  0     0  0
 10  3  1  0     0  0
 11 10  2  0     0  0
 12  9  1  0     0  0
 13  2  1  0     0  0
 14 13  1  0     0  0
 12  6  2  0     0  0
M  END