
          11280715192D 1   1.00000     0.00000     0

 16 16  0     0  0            999 V2000
    5.0417   -5.8292    0.0000 N   0  0  3  0  0  0           0  0  0
    5.1875   -5.0167    0.0000 C   0  0  0  0  0  0           0  0  0
    7.1875   -5.5250    0.0000 C   0  0  0  0  0  0           0  0  0
    6.4500   -5.9167    0.0000 C   0  0  0  0  0  0           0  0  0
    5.7125   -6.3167    0.0000 C   0  0  3  0  0  0           0  0  0
    5.9542   -4.7375    0.0000 O   0  0  0  0  0  0           0  0  0
    8.6292   -5.5667    0.0000 N   0  0  3  0  0  0           0  0  0
    7.9250   -5.1292    0.0000 C   0  0  0  0  0  0           0  0  0
    4.2500   -6.0500    0.0000 C   0  0  0  0  0  0           0  0  0
    4.5542   -4.4917    0.0000 C   0  0  0  0  0  0           0  0  0
    5.7500   -7.1417    0.0000 C   0  0  0  0  0  0           0  0  0
    8.6042   -6.4042    0.0000 C   0  0  0  0  0  0           0  0  0
    9.3542   -5.1750    0.0000 C   0  0  0  0  0  0           0  0  0
    3.9167   -6.8042    0.0000 C   0  0  0  0  0  0           0  0  0
    5.1292   -7.6792    0.0000 C   0  0  0  0  0  0           0  0  0
    4.3125   -7.5375    0.0000 C   0  0  0  0  0  0           0  0  0
  2  1  1  0     0  0
  3  4  3  0     0  0
  4  5  1  0     0  0
  5  1  1  0     0  0
  6  2  2  0     0  0
  7  8  1  0     0  0
  8  3  1  0     0  0
  9  1  1  0     0  0
 10  2  1  0     0  0
 11  5  1  0     0  0
 12  7  1  0     0  0
 13  7  1  0     0  0
 14  9  1  0     0  0
 15 11  1  0     0  0
 16 14  1  0     0  0
 15 16  1  0     0  0
M  END