
  SciTegic09081514172D

 63 64  0  0  0  0            999 V2000
   -4.9395    1.3433    0.0000 O   0  0
   -3.8990    0.7455    0.0000 S   0  0
   -3.8969   -0.4545    0.0000 O   0  0
    1.2999   -2.2084    0.0000 O   0  0
   -2.3383   -1.3500    0.0000 O   0  0
   -2.6003    1.4977    0.0000 O   0  0
    0.0000    2.5000    0.0000 O   0  0
    1.2990   -0.7500    0.0000 O   0  0
    0.0000   -1.5000    0.0000 C   0  0  2  0  0  0
   -1.2990   -0.7500    0.0000 C   0  0  1  0  0  0
   -1.2990    0.7500    0.0000 C   0  0  2  0  0  0
    0.0000    1.5000    0.0000 C   0  0  1  0  0  0
    1.2990    0.7500    0.0000 C   0  0  1  0  0  0
    2.5972    1.5031    0.0000 C   0  0
   -1.1305   -6.7879    0.0000 O   0  0
   -1.2253   -3.7882    0.0000 N   0  0
    3.7153   -3.7849    0.0000 O   0  0
    1.4654   -6.7053    0.0000 O   0  0
    0.1440   -5.9954    0.0000 C   0  0  1  0  0  0
    0.0981   -4.4961    0.0000 C   0  0  1  0  0  0
    1.3745   -3.7074    0.0000 C   0  0  2  0  0  0
    2.6949   -4.4165    0.0000 C   0  0  2  0  0  0
    2.7409   -5.9158    0.0000 C   0  0  1  0  0  0
    4.0616   -6.6288    0.0000 C   0  0
   -5.9902  -17.4575    0.0000 C   0  0
   -6.0361  -15.9581    0.0000 C   0  0
   -7.3576  -15.2484    0.0000 C   0  0
   -8.6331  -16.0378    0.0000 C   0  0
   -8.5871  -17.5371    0.0000 C   0  0
   -7.2657  -18.2469    0.0000 C   0  0
   -4.7616  -15.1656    0.0000 N   0  0
   -9.9567  -15.3303    0.0000 N   0  0
  -11.2317  -16.1221    0.0000 C   0  0
  -12.5553  -15.4146    0.0000 C   0  0
  -11.1928  -17.3214    0.0000 O   0  0
  -13.8303  -16.2063    0.0000 C   0  0
  -15.1539  -15.4988    0.0000 C   0  0
  -16.4289  -16.2906    0.0000 C   0  0
  -17.7525  -15.5831    0.0000 C   0  0
  -19.0842  -16.2452    0.0000 S   0  0
  -20.1216  -15.1618    0.0000 S   0  0
  -19.4118  -13.8404    0.0000 C   0  0
  -17.9357  -14.1071    0.0000 C   0  0
   -4.8097  -13.6656    0.0000 C   0  0
   -3.4150   -8.5144    0.0000 O   0  0
   -2.3569   -9.0805    0.0000 C   0  0  1  0  0  0
   -2.3088  -10.5805    0.0000 C   0  0  2  0  0  0
   -3.5833  -11.3730    0.0000 C   0  0  1  0  0  0
   -3.5352  -12.8731    0.0000 C   0  0  1  0  0  0
   -2.4771  -13.4391    0.0000 O   0  0
   -4.6414  -10.8070    0.0000 O   0  0
   -1.2507  -11.1466    0.0000 O   0  0
   -1.0824   -8.2880    0.0000 C   0  0
    4.0966   -7.8282    0.0000 O   0  0
   -0.8780   -1.9786    0.0000 H   0  0
    3.4646    1.0054    0.0000 O   0  0
    2.5949    2.5031    0.0000 O   0  5
   -2.5006   -4.5795    0.0000 C   0  0
   -2.4685   -5.5790    0.0000 C   0  0
   -3.3823   -4.1078    0.0000 O   0  0
   -4.9371    0.1435    0.0000 O   0  5
   15.1630    9.5651    0.0000 Na  0  3
   12.6630    9.5651    0.0000 Na  0  3
  2  1  2  0
  3  2  2  0
 13  8  1  0
  8  9  1  0
  9 10  1  0
 10 11  1  0
 11 12  1  0
 12 13  1  0
 13 14  1  1
  9  4  1  0
 10  5  1  6
 11  6  1  1
 12  7  1  6
 23 18  1  0
 18 19  1  0
 19 20  1  0
 20 21  1  0
 21 22  1  0
 22 23  1  0
 23 24  1  1
 19 15  1  6
 20 16  1  6
 21  4  1  1
 22 17  1  1
 25 26  2  0
 26 27  1  0
 27 28  2  0
 28 29  1  0
 29 30  2  0
 30 25  1  0
 26 31  1  0
 28 32  1  0
 32 33  1  0
 33 34  1  0
 33 35  2  0
 34 36  1  0
 36 37  1  0
 37 38  1  0
 38 39  1  0
 39 40  1  0
 40 41  1  0
 41 42  1  0
 42 43  1  0
 43 39  1  0
 31 44  1  0
 44 49  1  0
 46 45  1  6
 46 47  1  0
 47 48  1  0
 48 49  1  0
 49 50  1  1
 48 51  1  1
 47 52  1  1
 46 53  1  0
 53 15  1  0
 24 54  1  0
  9 55  1  6
 14 56  2  0
 14 57  1  0
 16 58  1  0
 58 59  1  0
 58 60  2  0
  6  2  1  0
  2 61  1  0
M  CHG  4  57  -1  61  -1  62   1  63   1
M  END