
          11280715172D 1   1.00000     0.00000     0

 41 43  0     1  0            999 V2000
    3.4167   -2.8292    0.0000 C   0  0  0  0  0  0           0  0  0
    2.7042   -2.4167    0.0000 C   0  0  0  0  0  0           0  0  0
    0.5542   -2.8292    0.0000 C   0  0  3  0  0  0           0  0  0
    1.9792   -0.3542    0.0000 C   0  0  3  0  0  0           0  0  0
    4.1292   -2.4167    0.0000 N   0  0  3  0  0  0           0  0  0
    1.2667   -2.4167    0.0000 C   0  0  0  0  0  0           0  0  0
    1.9792   -1.1792    0.0000 C   0  0  0  0  0  0           0  0  0
    9.1292   -2.8875    0.0000 C   0  0  0  0  0  0           0  0  0
    4.8417   -2.8292    0.0000 C   0  0  1  0  0  0           0  0  0
    2.7042   -1.5917    0.0000 C   0  0  0  0  0  0           0  0  0
    1.9792   -2.8292    0.0000 C   0  0  0  0  0  0           0  0  0
    5.5542   -2.4167    0.0000 C   0  0  0  0  0  0           0  0  0
    7.7042   -2.8250    0.0000 N   0  0  0  0  0  0           0  0  0
    1.2667   -1.5917    0.0000 C   0  0  0  0  0  0           0  0  0
    6.9917   -2.4125    0.0000 C   0  0  0  0  0  0           0  0  0
    8.4167   -2.4125    0.0000 C   0  0  2  0  0  0           0  0  0
    6.2792   -2.8292    0.0000 C   0  0  0  0  0  0           0  0  0
    9.8917   -2.6292    0.0000 N   0  0  0  0  0  0           0  0  0
    6.2792   -5.3000    0.0000 C   0  0  0  0  0  0           0  0  0
    3.4167   -3.6542    0.0000 O   0  0  0  0  0  0           0  0  0
    6.9917   -4.8875    0.0000 C   0  0  0  0  0  0           0  0  0
    4.8417   -3.6542    0.0000 C   0  0  0  0  0  0           0  0  0
    5.5542   -4.8917    0.0000 C   0  0  0  0  0  0           0  0  0
    5.5667   -4.0667    0.0000 C   0  0  0  0  0  0           0  0  0
    9.0167   -3.7042    0.0000 O   0  0  0  0  0  0           0  0  0
    6.9917   -1.5875    0.0000 O   0  0  0  0  0  0           0  0  0
   -0.0958   -3.2125    0.0000 F   0  0  0  0  0  0           0  0  0
   -0.2458   -2.5292    0.0000 F   0  0  0  0  0  0           0  0  0
    0.4167   -3.6875    0.0000 F   0  0  0  0  0  0           0  0  0
    1.9792    0.4000    0.0000 F   0  0  0  0  0  0           0  0  0
    2.6417    0.1958    0.0000 F   0  0  0  0  0  0           0  0  0
    1.3042    0.1958    0.0000 F   0  0  0  0  0  0           0  0  0
    6.9792   -4.0542    0.0000 C   0  0  0  0  0  0           0  0  0
    6.2792   -6.1250    0.0000 Cl  0  0  0  0  0  0           0  0  0
    6.2667   -3.6500    0.0000 C   0  0  0  0  0  0           0  0  0
    7.7042   -5.3000    0.0000 Cl  0  0  0  0  0  0           0  0  0
    4.1292   -1.5917    0.0000 C   0  0  0  0  0  0           0  0  0
   10.2042   -1.8792    0.0000 C   0  0  0  0  0  0           0  0  0
    8.3667   -1.5875    0.0000 C   0  0  0  0  0  0           0  0  0
    9.8292   -1.1875    0.0000 C   0  0  0  0  0  0           0  0  0
    8.9792   -1.0375    0.0000 C   0  0  0  0  0  0           0  0  0
  2  1  1  0     0  0
  3  6  1  0     0  0
  4  7  1  0     0  0
  5  1  1  0     0  0
  6 11  1  0     0  0
  7 10  2  0     0  0
  8 16  1  0     0  0
  9  5  1  0     0  0
 10  2  1  0     0  0
 11  2  2  0     0  0
 12  9  1  0     0  0
 13 15  1  0     0  0
 14  6  2  0     0  0
 15 17  1  0     0  0
 16 13  1  6     0  0
 17 12  2  0     0  0
 18  8  1  0     0  0
 19 23  1  0     0  0
 20  1  2  0     0  0
 21 33  1  0     0  0
  9 22  1  1     0  0
 23 24  2  0     0  0
 24 22  1  0     0  0
 25  8  2  0     0  0
 26 15  2  0     0  0
 27  3  1  0     0  0
 28  3  1  0     0  0
 29  3  1  0     0  0
 30  4  1  0     0  0
 31  4  1  0     0  0
 32  4  1  0     0  0
 33 35  2  0     0  0
 34 19  1  0     0  0
 35 24  1  0     0  0
 36 21  1  0     0  0
 37  5  1  0     0  0
 38 18  1  0     0  0
 39 16  1  0     0  0
 40 41  1  0     0  0
 41 39  1  0     0  0
 14  7  1  0     0  0
 21 19  2  0     0  0
 38 40  1  0     0  0
M  END