
  SciTegic10191216002D

 29 32  0  0  0  0            999 V2000
   11.2981  -11.9330    0.0000 C   0  0
   11.2969  -12.7606    0.0000 C   0  0
   12.0120  -13.1737    0.0000 C   0  0
   12.7286  -12.7601    0.0000 C   0  0
   12.7257  -11.9294    0.0000 C   0  0
   12.0102  -11.5201    0.0000 C   0  0
   12.0146  -13.9979    0.0000 C   0  0
   12.0086  -15.6475    0.0000 C   0  0
   12.7251  -15.2362    0.0000 N   0  0
   12.7290  -14.4084    0.0000 C   0  0
   11.2958  -15.2307    0.0000 C   0  0
   11.2990  -14.4112    0.0000 C   0  0
   10.5919  -14.0004    0.0000 C   0  0
    9.8812  -14.4081    0.0000 N   0  0
    9.8820  -15.2308    0.0000 C   0  0
   10.5896  -15.6379    0.0000 C   0  0
    8.4525  -15.2326    0.0000 C   0  0
    7.7384  -15.6462    0.0000 C   0  0
    7.0232  -15.2344    0.0000 C   0  0
    6.3117  -15.6480    0.0000 N   0  0
    5.5977  -15.2397    0.0000 C   0  0
    4.8885  -15.6498    0.0000 C   0  0
    4.8867  -16.4729    0.0000 C   0  0
    5.6003  -16.8845    0.0000 C   0  0
    6.3158  -16.4727    0.0000 C   0  0
   13.4383  -15.6515    0.0000 C   0  0
   13.4389  -11.5140    0.0000 O   0  0
   14.1552  -11.9240    0.0000 C   0  0
    9.1678  -15.6444    0.0000 O   0  0
 13 14  2  0
  1  2  2  0
 14 15  1  0
  3  4  2  0
 15 16  2  0
 16 11  1  0
 15 29  1  0
  4  5  1  0
 29 17  1  0
  7 10  1  0
 17 18  1  0
 11  8  1  0
 18 19  1  0
  8  9  1  0
 19 20  1  0
 20 21  1  0
  9 10  1  0
  7  3  1  0
  2  3  1  0
  5  6  2  0
 11 12  2  0
 20 25  1  0
 21 22  1  0
 22 23  1  0
 23 24  1  0
 24 25  1  0
  6  1  1  0
  9 26  1  0
 12 13  1  0
  5 27  1  0
  7 12  1  0
 27 28  1  0
M  END