
  SciTegic03161210572D

 34 37  0  0  0  0            999 V2000
   -2.2708   -7.2833    0.0000 O   0  0
   -1.5542   -7.6958    0.0000 S   0  0
   -1.5553   -6.8689    0.0000 O   0  0
   -0.3167   -8.4056    0.0000 C   0  0
    0.5065   -8.4068    0.0000 C   0  0
    0.9173   -7.6955    0.0000 C   0  0
    0.5060   -6.9827    0.0000 C   0  0
   -0.3203   -6.9855    0.0000 C   0  0
   -0.7274   -7.6973    0.0000 C   0  0
   -1.9628   -8.4155    0.0000 N   0  0
   -2.7878   -8.4180    0.0000 C   0  0
   -3.2733   -7.7563    0.0000 C   0  0
   -4.0572   -8.0136    0.0000 C   0  0
   -4.0547   -8.8386    0.0000 N   0  0
   -3.2693   -9.0911    0.0000 N   0  0
   -3.0106   -9.8692    0.0000 C   0  0
   -3.4083  -10.5926    0.0000 C   0  0
   -2.9807  -11.2972    0.0000 C   0  0
   -2.1550  -11.2792    0.0000 O   0  0
   -1.7588  -10.5507    0.0000 C   0  0
   -2.1887   -9.8491    0.0000 C   0  0
   -3.0214   -6.9707    0.0000 C   0  0
   -2.2151   -6.7961    0.0000 O   0  0
   -3.5758   -6.3597    0.0000 N   0  0
   -3.3238   -5.5742    0.0000 C   0  0  1  0  0  0
   -3.8782   -4.9632    0.0000 C   0  0
   -2.5175   -5.3995    0.0000 C   0  0
   -1.9632   -6.0105    0.0000 C   0  0
   -2.2656   -4.6139    0.0000 C   0  0
   -1.7250   -5.1792    0.0000 C   0  0
   -4.7260   -7.5307    0.0000 C   0  0
    1.7439   -7.6915    0.0000 C   0  0
    2.4583   -8.1042    0.0000 C   0  0
    2.4585   -7.2792    0.0000 C   0  0
 16 17  1  0
  9  4  1  0
 17 18  1  0
  9  2  1  0
 18 19  1  0
  3  2  2  0
 19 20  1  0
  2 10  1  0
 20 21  1  0
 21 16  1  0
 15 16  1  0
  5  6  1  0
 12 22  1  0
 10 11  1  0
 22 23  2  0
 11 12  2  0
 22 24  1  0
 24 25  1  0
  6  7  2  0
 25 26  1  1
  2  1  2  0
 25 27  1  0
  7  8  1  0
 27 28  1  0
 12 13  1  0
 27 29  1  0
 13 14  2  0
 27 30  1  0
 14 15  1  0
 13 31  1  0
 33 32  1  0
 34 33  1  0
 32 34  1  0
 15 11  1  0
  4  5  2  0
  8  9  2  0
  6 32  1  0
M  END