
  Mrv0541 05211314572D          

 39 40  0  0  0  0            999 V2000
   -2.7263   -0.7056    0.0000 C   0  0  0  0  0  0  0  0  0  0  0  0
   -1.2973   -0.7056    0.0000 C   0  0  0  0  0  0  0  0  0  0  0  0
   -2.0118   -0.2931    0.0000 C   0  0  0  0  0  0  0  0  0  0  0  0
   -1.2973   -1.5306    0.0000 C   0  0  0  0  0  0  0  0  0  0  0  0
   -2.7263   -1.5306    0.0000 C   0  0  0  0  0  0  0  0  0  0  0  0
   -2.0118   -1.9431    0.0000 N   0  0  0  0  0  0  0  0  0  0  0  0
   -3.4407    2.1819    0.0000 N   0  3  0  0  0  0  0  0  0  0  0  0
   -2.0118    0.5319    0.0000 C   0  0  0  0  0  0  0  0  0  0  0  0
   -0.5829   -0.2931    0.0000 C   0  0  0  0  0  0  0  0  0  0  0  0
   -3.4407   -0.2931    0.0000 C   0  0  0  0  0  0  0  0  0  0  0  0
   -2.7263    1.7694    0.0000 C   0  0  0  0  0  0  0  0  0  0  0  0
   -2.7263    0.9444    0.0000 C   0  0  0  0  0  0  0  0  0  0  0  0
   -3.4407    3.0069    0.0000 O   0  5  0  0  0  0  0  0  0  0  0  0
   -4.1552    1.7694    0.0000 O   0  0  0  0  0  0  0  0  0  0  0  0
   -0.5829    0.5319    0.0000 O   0  0  0  0  0  0  0  0  0  0  0  0
   -3.4407    0.5319    0.0000 O   0  0  0  0  0  0  0  0  0  0  0  0
    2.2750   -0.2931    0.0000 N   0  0  0  0  0  0  0  0  0  0  0  0
    3.7040   -0.2931    0.0000 C   0  0  0  0  0  0  0  0  0  0  0  0
    4.4184   -0.7056    0.0000 O   0  0  0  0  0  0  0  0  0  0  0  0
    2.9895   -0.7056    0.0000 C   0  0  0  0  0  0  0  0  0  0  0  0
    0.1316   -0.7056    0.0000 O   0  0  0  0  0  0  0  0  0  0  0  0
   -4.1552   -0.7056    0.0000 O   0  0  0  0  0  0  0  0  0  0  0  0
   -0.5829   -1.9431    0.0000 C   0  0  0  0  0  0  0  0  0  0  0  0
   -3.4407   -1.9431    0.0000 C   0  0  0  0  0  0  0  0  0  0  0  0
   -1.2973    0.9444    0.0000 C   0  0  0  0  0  0  0  0  0  0  0  0
    5.1329   -0.2931    0.0000 C   0  0  0  0  0  0  0  0  0  0  0  0
    8.8011    0.0000    0.0000 Cl  0  0  0  0  0  0  0  0  0  0  0  0
    0.8461   -0.2931    0.0000 C   0  0  0  0  0  0  0  0  0  0  0  0
   -2.0118    2.1819    0.0000 C   0  0  0  0  0  0  0  0  0  0  0  0
    1.5606   -0.7056    0.0000 C   0  0  0  0  0  0  0  0  0  0  0  0
   -1.2973    1.7694    0.0000 C   0  0  0  0  0  0  0  0  0  0  0  0
    2.2750    0.5319    0.0000 C   0  0  0  0  0  0  0  0  0  0  0  0
    2.9895   -1.5306    0.0000 C   0  0  0  0  0  0  0  0  0  0  0  0
   -4.8697   -0.2931    0.0000 C   0  0  0  0  0  0  0  0  0  0  0  0
    5.1329    0.5319    0.0000 C   0  0  0  0  0  0  0  0  0  0  0  0
    5.8474   -0.7056    0.0000 C   0  0  0  0  0  0  0  0  0  0  0  0
    6.5619   -0.2931    0.0000 C   0  0  0  0  0  0  0  0  0  0  0  0
    5.8474    0.9444    0.0000 C   0  0  0  0  0  0  0  0  0  0  0  0
    6.5619    0.5319    0.0000 C   0  0  0  0  0  0  0  0  0  0  0  0
  1  3  1  0  0  0  0
  2  3  1  0  0  0  0
  2  4  2  0  0  0  0
  1  5  1  0  0  0  0
  4  6  1  0  0  0  0
  5  6  2  0  0  0  0
  3  8  1  0  0  0  0
  2  9  1  0  0  0  0
  1 10  2  0  0  0  0
  7 11  1  0  0  0  0
  8 12  2  0  0  0  0
 11 12  1  0  0  0  0
  7 13  1  0  0  0  0
  7 14  2  0  0  0  0
  9 15  2  0  0  0  0
 10 16  1  0  0  0  0
 18 19  1  0  0  0  0
 17 20  1  0  0  0  0
 18 20  1  0  0  0  0
  9 21  1  0  0  0  0
 10 22  1  0  0  0  0
  4 23  1  0  0  0  0
  5 24  1  0  0  0  0
  8 25  1  0  0  0  0
 19 26  1  0  0  0  0
 21 28  1  0  0  0  0
 11 29  2  0  0  0  0
 17 30  1  0  0  0  0
 28 30  1  0  0  0  0
 25 31  2  0  0  0  0
 29 31  1  0  0  0  0
 17 32  1  0  0  0  0
 20 33  1  0  0  0  0
 22 34  1  0  0  0  0
 26 35  2  0  0  0  0
 26 36  1  0  0  0  0
 36 37  2  0  0  0  0
 35 38  1  0  0  0  0
 37 39  1  0  0  0  0
 38 39  2  0  0  0  0
M  CHG  2   7   1  13  -1
M  END