
  SciTegic12231509382D

 20 23  0  0  0  0            999 V2000
    7.3167   -6.8792    0.0000 N   0  0
    7.2292   -7.7042    0.0000 C   0  0
    6.5667   -6.5417    0.0000 C   0  0
    6.4250   -7.8750    0.0000 C   0  0
    6.0167   -7.1542    0.0000 C   0  0
    6.6542   -5.7250    0.0000 N   0  0
    8.0542   -7.7042    0.0000 C   0  0
    7.3167   -8.5250    0.0000 O   0  0
    7.8667   -6.2667    0.0000 C   0  0
    8.4667   -6.9875    0.0000 C   0  0
    8.4667   -8.4167    0.0000 C   0  0
    7.4625   -5.5542    0.0000 C   0  0
    9.7042   -7.7042    0.0000 C   0  0
    6.0167   -8.5917    0.0000 C   0  0
    9.2917   -8.4167    0.0000 C   0  0
    9.2917   -6.9875    0.0000 C   0  0
   10.5292   -7.7042    0.0000 Cl  0  0
    5.1917   -7.1542    0.0000 C   0  0
    5.1917   -8.5917    0.0000 C   0  0
    4.7750   -7.8750    0.0000 C   0  0
  2  1  1  0
  3  1  1  0
  4  2  1  0
  5  3  1  0
  6  3  2  0
  7  2  1  0
  8  2  1  0
  9  1  1  0
 10  7  1  0
 11  7  2  0
 12  9  1  0
 13 15  2  0
 14  4  1  0
 15 11  1  0
 16 10  2  0
 17 13  1  0
 18  5  1  0
 19 14  2  0
 20 18  2  0
  6 12  1  0
  4  5  2  0
 19 20  1  0
 16 13  1  0
M  END