
  SciTegic09261410572D

 81 75  0  0  0  0            999 V2000
   -2.9002    1.0764    0.0000 C   0  0  2  0  0  0
    3.3108    0.6087    0.0000 C   0  0  2  0  0  0
    1.9606    0.1410    0.0000 C   0  0  2  0  0  0
   -2.0901    0.9205    0.0000 C   0  0  2  0  0  0
   -3.4403    0.4528    0.0000 C   0  0  1  0  0  0
    3.0408    1.3882    0.0000 C   0  0  2  0  0  0
    2.7707   -0.0150    0.0000 C   0  0  1  0  0  0
    0.6104   -0.3268    0.0000 S   0  0
    4.6610    1.0764    0.0000 S   0  0
   -3.9804    2.0119    0.0000 S   0  0
    3.3108    2.7914    0.0000 S   0  0
   -1.8200    2.3237    0.0000 S   0  0
   -4.7905   -0.0150    0.0000 S   0  0
    0.8804    3.2592    0.0000 S   0  0
   -3.9804   -2.3536    0.0000 S   0  0
    1.4205   -0.4827    0.0000 O   0  0
    1.6906    0.9205    0.0000 O   0  0
    2.2306    1.5442    0.0000 C   0  0  2  0  0  0
   -3.1703   -0.3268    0.0000 C   0  0  1  0  0  0
   -1.8200    0.1410    0.0000 C   0  0  2  0  0  0
   -2.3601   -0.4827    0.0000 O   0  0
   -3.1703    1.8560    0.0000 O   0  0
    4.1210    0.4528    0.0000 O   0  0
   -1.5500    1.5442    0.0000 O   0  0
   -4.2504    0.6087    0.0000 O   0  0
    3.5809    2.0119    0.0000 O   0  0
    2.2306   -2.8213    0.0000 N   0  0
    3.0408   -0.7945    0.0000 O   0  0
    2.7707   -2.1977    0.0000 C   0  0
   -3.7103   -0.9504    0.0000 C   0  0
    1.9606    2.3237    0.0000 C   0  0
    1.1505    2.4796    0.0000 O   0  0
   -3.4403   -1.7300    0.0000 O   0  0
   -0.1998   -0.1709    0.0000 O   0  5
   -4.7905    2.1678    0.0000 O   0  5
   -5.3306   -0.6386    0.0000 O   0  5
    5.2011    1.7001    0.0000 O   0  5
   -2.0901    3.1033    0.0000 O   0  5
    3.0408    3.5710    0.0000 O   0  5
    1.6600    3.5292    0.0000 O   0  5
   -4.5205   -2.9772    0.0000 O   0  5
    1.1505   -1.8859    0.0000 C   0  0
    0.7663    0.4834    0.0000 O   0  0
    0.4545   -1.1369    0.0000 O   0  0
    5.2847    0.5363    0.0000 O   0  0
   -4.1363    1.2018    0.0000 O   0  0
    4.0904    3.0615    0.0000 O   0  0
   -2.5996    2.0537    0.0000 O   0  0
   -5.4142    0.5251    0.0000 O   0  0
    4.0374    1.6165    0.0000 O   0  0
   -4.1669   -0.5550    0.0000 O   0  0
   -3.8245    2.8220    0.0000 O   0  0
   -1.0405    2.5937    0.0000 O   0  0
    2.5313    2.5214    0.0000 O   0  0
    0.1009    2.9891    0.0000 O   0  0
   -3.3567   -2.8937    0.0000 O   0  0
    0.6104    4.0387    0.0000 O   0  0
   -4.6040   -1.8135    0.0000 O   0  0
    1.4205   -2.6654    0.0000 C   0  0
    2.5007   -1.4181    0.0000 C   0  0
    2.5007   -3.6009    0.0000 C   0  0
    3.5809   -2.3536    0.0000 O   0  0
    1.6906   -1.2622    0.0000 O   0  0
    0.3403   -1.7300    0.0000 N   0  0
   -1.0099   -0.0150    0.0000 O   0  0
    1.9606   -4.2245    0.0000 C   0  0
    7.5240    0.0000    0.0000 Na  0  3
    8.5258    0.0000    0.0000 Na  0  3
    0.0000   -7.2777    0.0000 Na  0  3
    1.0018   -7.2777    0.0000 Na  0  3
    2.0036   -7.2777    0.0000 Na  0  3
    0.0000   -8.9277    0.0000 Na  0  3
    1.0018   -8.9277    0.0000 Na  0  3
    2.0036   -8.9277    0.0000 Na  0  3
    0.0703   -0.9504    0.0000 C   0  0
   -0.7398   -0.7945    0.0000 C   0  0
    1.1505   -4.0686    0.0000 C   0  0
    2.2306   -5.0041    0.0000 C   0  0
    1.6906   -5.6277    0.0000 C   0  0
    0.6104   -4.6923    0.0000 C   0  0
    0.8804   -5.4718    0.0000 C   0  0
  2  7  1  0
  3  7  1  0
  4  1  1  0
  5  1  1  0
  6  2  1  0
  7 28  1  6
  8 16  1  0
  9 23  1  0
 10 22  1  0
 11 26  1  0
 12 24  1  0
 13 25  1  0
 14 32  1  0
 15 33  1  0
  3 16  1  6
 17  3  1  0
 18 17  1  0
 19  5  1  0
 20  4  1  0
 21 19  1  0
  1 22  1  6
  2 23  1  1
  4 24  1  1
  5 25  1  1
  6 26  1  6
 27 59  1  0
 28 60  1  0
 29 27  1  0
 19 30  1  1
 18 31  1  6
 32 31  1  0
 33 30  1  0
 34  8  1  0
 35 10  1  0
 36 13  1  0
 37  9  1  0
 38 12  1  0
 39 11  1  0
 40 14  1  0
 41 15  1  0
 42 64  1  0
 43  8  2  0
 44  8  2  0
 45  9  2  0
 46 10  2  0
 47 11  2  0
 48 12  2  0
 49 13  2  0
 50  9  2  0
 51 13  2  0
 52 10  2  0
 53 12  2  0
 54 11  2  0
 55 14  2  0
 56 15  2  0
 57 14  2  0
 58 15  2  0
 59 42  1  0
 60 29  1  0
 61 27  1  0
 62 29  2  0
 63 42  2  0
 64 75  1  0
 20 65  1  1
 66 61  1  0
 75 76  1  0
 76 65  1  0
 77 66  2  0
 78 66  1  0
 79 78  2  0
 80 77  1  0
 81 79  1  0
 21 20  1  0
 80 81  2  0
  6 18  1  0
M  CHG  8  34  -1  35  -1  36  -1  37  -1  38  -1  39  -1  40  -1  41  -1
M  CHG  8  67   1  68   1  69   1  70   1  71   1  72   1  73   1  74   1
M  END