
  SciTegic01161211252D

 31 34  0  0  0  0            999 V2000
   -1.9559   -8.4542    0.0000 C   0  0
   -1.2945   -7.9612    0.0000 C   0  0
   -1.5590   -7.1795    0.0000 C   0  0
   -2.3841   -7.1896    0.0000 N   0  0
   -2.6292   -7.9768    0.0000 N   0  0
   -3.3434   -8.3824    0.0000 C   0  0
   -4.0541   -7.9620    0.0000 C   0  0
   -4.7715   -8.3672    0.0000 C   0  0
   -4.7793   -9.1928    0.0000 C   0  0
   -4.0637   -9.6114    0.0000 C   0  0
   -3.3492   -9.2037    0.0000 C   0  0
   -1.1550   -6.4601    0.0000 C   0  0
   -0.3303   -6.4501    0.0000 N   0  0
   -1.5760   -5.7509    0.0000 O   0  0
    0.0734   -5.7309    0.0000 N   0  0
   -1.9437   -9.2768    0.0000 C   0  0
   -2.6545   -9.6973    0.0000 C   0  0
   -2.6448  -10.5212    0.0000 C   0  0
   -1.9251  -10.9255    0.0000 C   0  0
   -1.2136  -10.5001    0.0000 C   0  0
   -1.2268   -9.6776    0.0000 C   0  0
   -5.4966   -9.5997    0.0000 Cl  0  0
   -1.9139  -11.7503    0.0000 Cl  0  0
   -4.0459   -7.1372    0.0000 Cl  0  0
   -0.5070   -8.2064    0.0000 S   0  0
   -0.3257   -9.0109    0.0000 C   0  0
    0.8950   -5.7258    0.0000 C   0  0
    1.2986   -5.0108    0.0000 C   0  0
    0.8811   -4.2991    0.0000 C   0  0
    0.0555   -4.3071    0.0000 C   0  0
   -0.3527   -5.0268    0.0000 C   0  0
 13 15  1  0
  7  8  1  0
  3  4  2  0
 16 17  2  0
  8  9  2  0
 17 18  1  0
  4  5  1  0
 18 19  2  0
  9 10  1  0
 19 20  1  0
  5  1  1  0
 20 21  2  0
 21 16  1  0
  1 16  1  0
 10 11  2  0
  9 22  1  0
 11  6  1  0
 19 23  1  0
  5  6  1  0
  7 24  1  0
  1  2  2  0
  2 25  1  0
  3 12  1  0
 25 26  1  0
 15 27  1  0
 12 13  1  0
  6  7  2  0
 12 14  2  0
  2  3  1  0
 15 31  1  0
 27 28  1  0
 28 29  1  0
 29 30  1  0
 30 31  1  0
M  END