
  SciTegic01061414252D

 34 37  0  0  0  0            999 V2000
    9.1714   -9.5355    0.0000 O   0  0
    8.9205  -10.3133    0.0000 N   0  0
    8.1033  -10.3150    0.0000 C   0  0
    7.8491   -9.5383    0.0000 C   0  0
    8.5092   -9.0566    0.0000 C   0  0
    7.6243  -10.9771    0.0000 C   0  0
    6.8114  -10.8934    0.0000 O   0  0
    7.9583  -11.7229    0.0000 N   0  0
    6.5214  -13.7093    0.0000 N   0  0
    6.1875  -12.9635    0.0000 C   0  0
    6.6664  -12.3014    0.0000 C   0  0
    7.4793  -12.3851    0.0000 C   0  0
    7.8133  -13.1309    0.0000 C   0  0
    7.3343  -13.7930    0.0000 C   0  0
    6.0425  -14.3715    0.0000 C   0  0
    8.5075   -8.2394    0.0000 C   0  0
    7.7989   -7.8323    0.0000 C   0  0
    7.7972   -7.0151    0.0000 C   0  0
    8.5041   -6.6050    0.0000 C   0  0
    9.2126   -7.0121    0.0000 C   0  0
    9.2144   -7.8293    0.0000 C   0  0
    9.9229   -8.2364    0.0000 O   0  0
   10.6298   -7.8263    0.0000 C   0  0
   10.6281   -7.0092    0.0000 C   0  0
   11.3349   -6.5991    0.0000 C   0  0
   12.0435   -7.0062    0.0000 C   0  0
   12.0452   -7.8234    0.0000 C   0  0
   11.3383   -8.2335    0.0000 C   0  0
   12.7503   -6.5961    0.0000 N   0  0
   14.1657   -6.5931    0.0000 C   0  0
   13.4589   -7.0032    0.0000 C   0  0
   13.4606   -7.8204    0.0000 C   0  0
    8.5024   -5.7878    0.0000 O   0  0
    7.0921   -8.2424    0.0000 O   0  0
  1  2  1  0
  2  3  2  0
  3  4  1  0
  4  5  2  0
  1  5  1  0
  6  7  2  0
  6  8  1  0
  3  6  1  0
  9 10  1  0
 10 11  1  0
 11 12  1  0
 12 13  1  0
 13 14  1  0
  9 14  1  0
  9 15  1  0
  8 12  1  0
 16 17  1  0
 17 18  2  0
 18 19  1  0
 19 20  2  0
 20 21  1  0
 16 21  2  0
 23 24  1  0
 24 25  2  0
 25 26  1  0
 26 27  2  0
 27 28  1  0
 23 28  2  0
 22 23  1  0
 30 31  1  0
 31 32  1  0
 29 31  1  0
 26 29  1  0
 21 22  1  0
 19 33  1  0
 17 34  1  0
  5 16  1  0
M  END