
  SciTegic11201309402D

 28 28  0  0  0  0            999 V2000
    0.6128   -2.8056    0.0000 S   0  0
    9.0086   -5.4444    0.0000 C   0  0  1  0  0  0
    9.4213   -6.1572    0.0000 C   0  0
    8.1832   -5.4527    0.0000 N   0  0
    3.9061   -2.7931    0.0000 C   0  0
    1.4382   -2.8056    0.0000 C   0  0
    7.6955   -4.7815    0.0000 C   0  0
    4.3188   -3.5059    0.0000 N   0  0
    0.6045   -3.6310    0.0000 O   0  0
    0.6128   -1.9802    0.0000 O   0  0
    5.5652   -4.2063    0.0000 C   0  0
    3.0807   -2.7931    0.0000 C   0  0
   -0.2126   -2.8014    0.0000 N   0  0
    6.3906   -4.2063    0.0000 N   0  0
    9.0211   -6.8784    0.0000 O   0  0
    4.3146   -2.0760    0.0000 O   0  0
    9.4171   -4.7315    0.0000 C   0  0  2  0  0  0
    8.0331   -4.0312    0.0000 O   0  0
    5.1567   -4.9274    0.0000 O   0  0
    1.8384   -2.0927    0.0000 C   0  0
    1.8509   -3.5184    0.0000 C   0  0
    2.6680   -3.5142    0.0000 C   0  0
    2.6555   -2.0802    0.0000 C   0  0
    5.1442   -3.4934    0.0000 C   0  0
    6.8784   -4.8691    0.0000 C   0  0
   10.2467   -6.1530    0.0000 O   0  0
   10.2425   -4.7190    0.0000 O   0  0
    8.9961   -4.0187    0.0000 C   0  0
  2  4  1  1
  3  2  1  0
  4  7  1  0
  5 12  1  0
  6  1  1  0
  7 25  1  0
  8  5  1  0
  9  1  2  0
 10  1  2  0
 11 24  1  0
 12 22  2  0
 13  1  1  0
 14 11  1  0
 15  3  2  0
 16  5  2  0
  2 17  1  0
 18  7  2  0
 19 11  2  0
 20  6  1  0
 21  6  2  0
 22 21  1  0
 23 20  2  0
 24  8  1  0
 25 14  1  0
 26  3  1  0
 17 27  1  1
 28 17  1  0
 12 23  1  0
M  END