
          11280715122D 1   1.00000     0.00000     0

 35 38  0     0  0            999 V2000
    9.1417   -8.7000    0.0000 C   0  0  0  0  0  0           0  0  0
    6.1375   -4.3667    0.0000 C   0  0  0  0  0  0           0  0  0
    8.6125   -9.9250    0.0000 N   0  0  0  0  0  0           0  0  0
    6.1375   -3.5375    0.0000 C   0  0  0  0  0  0           0  0  0
    9.3250   -9.5042    0.0000 N   0  0  0  0  0  0           0  0  0
    8.0000   -9.3917    0.0000 N   0  0  0  0  0  0           0  0  0
    5.4167   -4.7792    0.0000 N   0  0  0  0  0  0           0  0  0
    8.3292   -8.6167    0.0000 N   0  0  0  0  0  0           0  0  0
    9.6917   -8.0792    0.0000 C   0  0  0  0  0  0           0  0  0
    6.8500   -3.1167    0.0000 C   0  0  0  0  0  0           0  0  0
    9.6917   -7.2542    0.0000 C   0  0  0  0  0  0           0  0  0
    5.4167   -3.1250    0.0000 C   0  0  0  0  0  0           0  0  0
    4.7042   -3.5417    0.0000 N   0  0  0  0  0  0           0  0  0
    4.7042   -4.3667    0.0000 C   0  0  0  0  0  0           0  0  0
    6.8500   -4.7792    0.0000 N   0  0  0  0  0  0           0  0  0
    8.9875   -6.8417    0.0000 C   0  0  0  0  0  0           0  0  0
    6.8417   -2.2917    0.0000 O   0  0  0  0  0  0           0  0  0
    8.9792   -6.0125    0.0000 C   0  0  0  0  0  0           0  0  0
    8.2667   -7.2542    0.0000 C   0  0  0  0  0  0           0  0  0
    6.8417   -5.6042    0.0000 C   0  0  0  0  0  0           0  0  0
    7.5667   -3.5292    0.0000 O   0  0  0  0  0  0           0  0  0
    7.5625   -6.0167    0.0000 C   0  0  0  0  0  0           0  0  0
    8.2667   -5.6042    0.0000 C   0  0  0  0  0  0           0  0  0
    7.5542   -6.8417    0.0000 C   0  0  0  0  0  0           0  0  0
   10.4042   -8.4917    0.0000 C   0  0  0  0  0  0           0  0  0
   10.4042   -6.8417    0.0000 C   0  0  0  0  0  0           0  0  0
    3.9917   -4.7792    0.0000 C   0  0  0  0  0  0           0  0  0
    8.3625   -3.3125    0.0000 C   0  0  0  0  0  0           0  0  0
    3.2750   -4.3667    0.0000 C   0  0  0  0  0  0           0  0  0
    1.8417   -4.3667    0.0000 C   0  0  0  0  0  0           0  0  0
    2.5542   -4.7792    0.0000 C   0  0  0  0  0  0           0  0  0
   11.1250   -8.0792    0.0000 C   0  0  0  0  0  0           0  0  0
   11.1167   -7.2500    0.0000 C   0  0  0  0  0  0           0  0  0
    8.9417   -3.8875    0.0000 C   0  0  0  0  0  0           0  0  0
    1.1250   -4.7792    0.0000 C   0  0  0  0  0  0           0  0  0
  2 15  1  0     0  0
  3  5  2  0     0  0
  4  2  1  0     0  0
  5  1  1  0     0  0
  6  8  1  0     0  0
  7  2  2  0     0  0
  8  1  2  0     0  0
  9  1  1  0     0  0
 10  4  1  0     0  0
 11  9  2  0     0  0
 12  4  2  0     0  0
 13 14  2  0     0  0
 14  7  1  0     0  0
 15 20  1  0     0  0
 16 11  1  0     0  0
 17 10  2  0     0  0
 18 16  2  0     0  0
 19 16  1  0     0  0
 20 22  1  0     0  0
 21 10  1  0     0  0
 22 24  1  0     0  0
 23 18  1  0     0  0
 24 19  2  0     0  0
 25  9  1  0     0  0
 26 11  1  0     0  0
 27 14  1  0     0  0
 28 21  1  0     0  0
 29 27  1  0     0  0
 30 31  1  0     0  0
 31 29  1  0     0  0
 32 25  2  0     0  0
 33 32  1  0     0  0
 34 28  1  0     0  0
 35 30  1  0     0  0
  3  6  1  0     0  0
 26 33  2  0     0  0
 22 23  2  0     0  0
 13 12  1  0     0  0
M  END