
  Mrv0541 05211314572D          

106109  0  0  0  0            999 V2000
    8.9309    2.2688    0.0000 C   0  0  0  0  0  0  0  0  0  0  0  0
    8.2164    2.6812    0.0000 O   0  0  0  0  0  0  0  0  0  0  0  0
    7.5019    2.2687    0.0000 C   0  0  0  0  0  0  0  0  0  0  0  0
    6.7875    2.6812    0.0000 C   0  0  0  0  0  0  0  0  0  0  0  0
    6.0730    2.2687    0.0000 C   0  0  0  0  0  0  0  0  0  0  0  0
    6.0730    1.4437    0.0000 C   0  0  0  0  0  0  0  0  0  0  0  0
    6.7875    1.0312    0.0000 C   0  0  0  0  0  0  0  0  0  0  0  0
    7.5019    1.4438    0.0000 C   0  0  0  0  0  0  0  0  0  0  0  0
    8.2164    1.0313    0.0000 C   0  0  0  0  0  0  0  0  0  0  0  0
    8.2164    0.2063    0.0000 N   0  0  0  0  0  0  0  0  0  0  0  0
    7.5019   -0.2063    0.0000 C   0  0  0  0  0  0  0  0  0  0  0  0
    6.7875    0.2063    0.0000 C   0  0  0  0  0  0  0  0  0  0  0  0
    6.0730   -0.2063    0.0000 C   0  0  0  0  0  0  0  0  0  0  0  0
    5.3585    0.2063    0.0000 C   0  0  0  0  0  0  0  0  0  0  0  0
    4.6441   -0.2063    0.0000 C   0  0  0  0  0  0  0  0  0  0  0  0
    3.9296    0.2063    0.0000 C   0  0  0  0  0  0  0  0  0  0  0  0
    3.2151   -0.2062    0.0000 N   0  0  0  0  0  0  0  0  0  0  0  0
    3.2151   -1.0312    0.0000 C   0  0  0  0  0  0  0  0  0  0  0  0
    2.5006    0.2063    0.0000 C   0  0  0  0  0  0  0  0  0  0  0  0
    1.7862   -0.2062    0.0000 C   0  0  0  0  0  0  0  0  0  0  0  0
    1.0717    0.2063    0.0000 C   0  0  0  0  0  0  0  0  0  0  0  0
    0.3572   -0.2062    0.0000 C   0  0  0  0  0  0  0  0  0  0  0  0
   -0.3572    0.2063    0.0000 C   0  0  0  0  0  0  0  0  0  0  0  0
   -1.0717   -0.2062    0.0000 C   0  0  0  0  0  0  0  0  0  0  0  0
   -1.7862    0.2063    0.0000 C   0  0  0  0  0  0  0  0  0  0  0  0
   -2.5006   -0.2062    0.0000 C   0  0  0  0  0  0  0  0  0  0  0  0
   -3.2151    0.2063    0.0000 N   0  0  0  0  0  0  0  0  0  0  0  0
   -3.2151    1.0313    0.0000 C   0  0  0  0  0  0  0  0  0  0  0  0
   -3.9296   -0.2062    0.0000 C   0  0  0  0  0  0  0  0  0  0  0  0
   -4.6441    0.2063    0.0000 C   0  0  0  0  0  0  0  0  0  0  0  0
   -5.3585   -0.2062    0.0000 C   0  0  0  0  0  0  0  0  0  0  0  0
   -6.0730    0.2063    0.0000 C   0  0  0  0  0  0  0  0  0  0  0  0
   -6.7875   -0.2062    0.0000 C   0  0  0  0  0  0  0  0  0  0  0  0
   -7.5019    0.2063    0.0000 C   0  0  0  0  0  0  0  0  0  0  0  0
   -8.2164   -0.2062    0.0000 N   0  0  0  0  0  0  0  0  0  0  0  0
   -8.9309    0.2063    0.0000 C   0  0  0  0  0  0  0  0  0  0  0  0
   -9.6454   -0.2062    0.0000 C   0  0  0  0  0  0  0  0  0  0  0  0
   -9.6454   -1.0312    0.0000 O   0  0  0  0  0  0  0  0  0  0  0  0
  -10.3598    0.2063    0.0000 N   0  0  0  0  0  0  0  0  0  0  0  0
  -11.0415   -0.2585    0.0000 C   0  0  0  0  0  0  0  0  0  0  0  0
  -10.8579   -1.0628    0.0000 C   0  0  0  0  0  0  0  0  0  0  0  0
  -11.4627   -1.6239    0.0000 C   0  0  0  0  0  0  0  0  0  0  0  0
  -12.2510   -1.3808    0.0000 C   0  0  0  0  0  0  0  0  0  0  0  0
  -12.4346   -0.5765    0.0000 C   0  0  0  0  0  0  0  0  0  0  0  0
  -11.8298   -0.0153    0.0000 C   0  0  0  0  0  0  0  0  0  0  0  0
  -12.1312    0.7527    0.0000 C   0  0  0  0  0  0  0  0  0  0  0  0
  -12.9539    0.8143    0.0000 O   0  0  0  0  0  0  0  0  0  0  0  0
  -11.7187    1.4671    0.0000 N   0  0  0  0  0  0  0  0  0  0  0  0
  -10.9029    1.5901    0.0000 C   0  0  0  0  0  0  0  0  0  0  0  0
  -10.7194    2.3944    0.0000 C   0  0  0  0  0  0  0  0  0  0  0  0
   -9.9310    2.6376    0.0000 C   0  0  0  0  0  0  0  0  0  0  0  0
   -9.3262    2.0764    0.0000 C   0  0  0  0  0  0  0  0  0  0  0  0
   -9.5098    1.2721    0.0000 N   0  0  0  0  0  0  0  0  0  0  0  0
  -10.2982    1.0289    0.0000 C   0  0  0  0  0  0  0  0  0  0  0  0
   -8.2164   -1.0312    0.0000 C   0  0  0  0  0  0  0  0  0  0  0  0
   -7.5019   -1.4437    0.0000 C   0  0  0  0  0  0  0  0  0  0  0  0
   -6.7875   -1.0312    0.0000 C   0  0  0  0  0  0  0  0  0  0  0  0
   -6.0730   -1.4438    0.0000 C   0  0  0  0  0  0  0  0  0  0  0  0
   -6.0730   -2.2688    0.0000 C   0  0  0  0  0  0  0  0  0  0  0  0
   -6.7875   -2.6812    0.0000 C   0  0  0  0  0  0  0  0  0  0  0  0
   -7.5019   -2.2687    0.0000 C   0  0  0  0  0  0  0  0  0  0  0  0
   -8.2164   -2.6812    0.0000 O   0  0  0  0  0  0  0  0  0  0  0  0
   -8.9309   -2.2687    0.0000 C   0  0  0  0  0  0  0  0  0  0  0  0
    8.9309   -0.2063    0.0000 C   0  0  0  0  0  0  0  0  0  0  0  0
    9.6454    0.2063    0.0000 C   0  0  0  0  0  0  0  0  0  0  0  0
    9.6454    1.0313    0.0000 O   0  0  0  0  0  0  0  0  0  0  0  0
   10.3598   -0.2063    0.0000 N   0  0  0  0  0  0  0  0  0  0  0  0
   11.0415    0.2585    0.0000 C   0  0  0  0  0  0  0  0  0  0  0  0
   10.8579    1.0628    0.0000 C   0  0  0  0  0  0  0  0  0  0  0  0
   11.4627    1.6239    0.0000 C   0  0  0  0  0  0  0  0  0  0  0  0
   12.2510    1.3808    0.0000 C   0  0  0  0  0  0  0  0  0  0  0  0
   12.4346    0.5765    0.0000 C   0  0  0  0  0  0  0  0  0  0  0  0
   11.8298    0.0153    0.0000 C   0  0  0  0  0  0  0  0  0  0  0  0
   12.1312   -0.7527    0.0000 C   0  0  0  0  0  0  0  0  0  0  0  0
   12.9539   -0.8143    0.0000 O   0  0  0  0  0  0  0  0  0  0  0  0
   11.7187   -1.4671    0.0000 N   0  0  0  0  0  0  0  0  0  0  0  0
   10.9029   -1.5901    0.0000 C   0  0  0  0  0  0  0  0  0  0  0  0
   10.7194   -2.3944    0.0000 C   0  0  0  0  0  0  0  0  0  0  0  0
    9.9310   -2.6376    0.0000 C   0  0  0  0  0  0  0  0  0  0  0  0
    9.3262   -2.0764    0.0000 C   0  0  0  0  0  0  0  0  0  0  0  0
    9.5098   -1.2721    0.0000 N   0  0  0  0  0  0  0  0  0  0  0  0
   10.2982   -1.0289    0.0000 C   0  0  0  0  0  0  0  0  0  0  0  0
   15.9004    1.0717    0.0000 O   0  0  0  0  0  0  0  0  0  0  0  0
   16.3129    0.3572    0.0000 C   0  0  0  0  0  0  0  0  0  0  0  0
   17.1379    0.3572    0.0000 O   0  0  0  0  0  0  0  0  0  0  0  0
   15.9004   -0.3572    0.0000 C   0  0  0  0  0  0  0  0  0  0  0  0
   16.3129   -1.0717    0.0000 O   0  0  0  0  0  0  0  0  0  0  0  0
   15.0754   -0.3572    0.0000 O   0  0  0  0  0  0  0  0  0  0  0  0
   20.0843    1.0717    0.0000 O   0  0  0  0  0  0  0  0  0  0  0  0
   20.4968    0.3572    0.0000 C   0  0  0  0  0  0  0  0  0  0  0  0
   21.3218    0.3572    0.0000 O   0  0  0  0  0  0  0  0  0  0  0  0
   20.0843   -0.3572    0.0000 C   0  0  0  0  0  0  0  0  0  0  0  0
   20.4968   -1.0717    0.0000 O   0  0  0  0  0  0  0  0  0  0  0  0
   19.2593   -0.3572    0.0000 O   0  0  0  0  0  0  0  0  0  0  0  0
   -0.2063   -4.3312    0.0000 O   0  0  0  0  0  0  0  0  0  0  0  0
    0.2062   -5.0457    0.0000 C   0  0  0  0  0  0  0  0  0  0  0  0
    1.0313   -5.0457    0.0000 O   0  0  0  0  0  0  0  0  0  0  0  0
   -0.2063   -5.7602    0.0000 C   0  0  0  0  0  0  0  0  0  0  0  0
    0.2063   -6.4747    0.0000 O   0  0  0  0  0  0  0  0  0  0  0  0
   -1.0313   -5.7602    0.0000 O   0  0  0  0  0  0  0  0  0  0  0  0
    3.9777   -4.3312    0.0000 O   0  0  0  0  0  0  0  0  0  0  0  0
    4.3902   -5.0457    0.0000 C   0  0  0  0  0  0  0  0  0  0  0  0
    5.2152   -5.0457    0.0000 O   0  0  0  0  0  0  0  0  0  0  0  0
    3.9777   -5.7602    0.0000 C   0  0  0  0  0  0  0  0  0  0  0  0
    4.3902   -6.4747    0.0000 O   0  0  0  0  0  0  0  0  0  0  0  0
    3.1527   -5.7602    0.0000 O   0  0  0  0  0  0  0  0  0  0  0  0
  1  2  1  0  0  0  0
  2  3  1  0  0  0  0
  3  4  2  0  0  0  0
  4  5  1  0  0  0  0
  5  6  2  0  0  0  0
  6  7  1  0  0  0  0
  7  8  2  0  0  0  0
  8  3  1  0  0  0  0
  8  9  1  0  0  0  0
  9 10  1  0  0  0  0
 10 11  1  0  0  0  0
 11 12  1  0  0  0  0
 12 13  1  0  0  0  0
 13 14  1  0  0  0  0
 14 15  1  0  0  0  0
 15 16  1  0  0  0  0
 16 17  1  0  0  0  0
 17 18  1  0  0  0  0
 17 19  1  0  0  0  0
 19 20  1  0  0  0  0
 20 21  1  0  0  0  0
 21 22  1  0  0  0  0
 22 23  1  0  0  0  0
 23 24  1  0  0  0  0
 24 25  1  0  0  0  0
 25 26  1  0  0  0  0
 26 27  1  0  0  0  0
 27 28  1  0  0  0  0
 27 29  1  0  0  0  0
 29 30  1  0  0  0  0
 30 31  1  0  0  0  0
 31 32  1  0  0  0  0
 32 33  1  0  0  0  0
 33 34  1  0  0  0  0
 34 35  1  0  0  0  0
 35 36  1  0  0  0  0
 36 37  1  0  0  0  0
 37 38  2  0  0  0  0
 37 39  1  0  0  0  0
 39 40  1  0  0  0  0
 40 41  2  0  0  0  0
 41 42  1  0  0  0  0
 42 43  2  0  0  0  0
 43 44  1  0  0  0  0
 44 45  2  0  0  0  0
 45 40  1  0  0  0  0
 45 46  1  0  0  0  0
 46 47  2  0  0  0  0
 46 48  1  0  0  0  0
 48 49  1  0  0  0  0
 49 50  2  0  0  0  0
 50 51  1  0  0  0  0
 51 52  2  0  0  0  0
 52 53  1  0  0  0  0
 53 54  2  0  0  0  0
 54 39  1  0  0  0  0
 54 49  1  0  0  0  0
 35 55  1  0  0  0  0
 55 56  1  0  0  0  0
 56 57  2  0  0  0  0
 57 58  1  0  0  0  0
 58 59  2  0  0  0  0
 59 60  1  0  0  0  0
 60 61  2  0  0  0  0
 61 56  1  0  0  0  0
 61 62  1  0  0  0  0
 62 63  1  0  0  0  0
 10 64  1  0  0  0  0
 64 65  1  0  0  0  0
 65 66  2  0  0  0  0
 65 67  1  0  0  0  0
 67 68  1  0  0  0  0
 68 69  2  0  0  0  0
 69 70  1  0  0  0  0
 70 71  2  0  0  0  0
 71 72  1  0  0  0  0
 72 73  2  0  0  0  0
 73 68  1  0  0  0  0
 73 74  1  0  0  0  0
 74 75  2  0  0  0  0
 74 76  1  0  0  0  0
 76 77  1  0  0  0  0
 77 78  2  0  0  0  0
 78 79  1  0  0  0  0
 79 80  2  0  0  0  0
 80 81  1  0  0  0  0
 81 82  2  0  0  0  0
 82 67  1  0  0  0  0
 82 77  1  0  0  0  0
 83 84  1  0  0  0  0
 84 85  2  0  0  0  0
 84 86  1  0  0  0  0
 86 87  2  0  0  0  0
 86 88  1  0  0  0  0
 89 90  1  0  0  0  0
 90 91  2  0  0  0  0
 90 92  1  0  0  0  0
 92 93  2  0  0  0  0
 92 94  1  0  0  0  0
 95 96  1  0  0  0  0
 96 97  2  0  0  0  0
 96 98  1  0  0  0  0
 98 99  2  0  0  0  0
 98100  1  0  0  0  0
101102  1  0  0  0  0
102103  2  0  0  0  0
102104  1  0  0  0  0
104105  2  0  0  0  0
104106  1  0  0  0  0
M  END