
  SciTegic04021211102D

 27 29  0  0  0  0            999 V2000
   15.8966  -10.6309    0.0000 C   0  0
   15.8955  -11.4558    0.0000 C   0  0
   16.6110  -11.8674    0.0000 C   0  0
   17.3282  -11.4553    0.0000 C   0  0
   17.3252  -10.6270    0.0000 C   0  0
   16.6091  -10.2150    0.0000 C   0  0
   18.0312  -10.2099    0.0000 C   0  0
   18.7482  -10.6246    0.0000 C   0  0
   19.4612  -10.2068    0.0000 C   0  0
   19.4585   -9.3834    0.0000 N   0  0
   18.7364   -8.9752    0.0000 C   0  0
   18.0265   -9.3911    0.0000 N   0  0
   16.6108  -12.6942    0.0000 C   0  0
   17.3258  -13.1056    0.0000 N   0  0
   18.0367  -12.6947    0.0000 C   0  0
   18.7518  -13.1060    0.0000 C   0  0
   16.6065   -9.3924    0.0000 C   0  0
   18.7613   -8.1484    0.0000 N   0  0
   19.4670  -12.6950    0.0000 C   0  0
   20.1821  -13.1063    0.0000 N   0  0
   20.8930  -12.6953    0.0000 C   0  0
   15.8608  -13.1278    0.0000 O   0  0
   21.6044  -13.1055    0.0000 O   0  0
   20.8924  -11.8741    0.0000 C   0  0
   20.1811  -11.4640    0.0000 C   0  0
   20.1806  -10.6428    0.0000 S   0  0
   15.1453  -11.8889    0.0000 C   0  0
  3 13  1  0
  1  2  2  0
 13 14  1  0
  3  4  2  0
 14 15  1  0
  7  8  2  0
 15 16  1  0
  6 17  1  0
  8  9  1  0
 11 18  1  0
  4  5  1  0
 16 19  1  0
  9 10  2  0
 19 20  1  0
  2  3  1  0
 20 21  1  0
 10 11  1  0
 13 22  2  0
  5  6  2  0
 21 23  2  0
 11 12  2  0
 21 24  1  0
 12  7  1  0
 24 25  1  0
  5  7  1  0
 25 26  1  0
  9 26  1  0
  6  1  1  0
  2 27  1  0
M  END