
  SciTegic05221516342D

 16 17  0  0  0  0            999 V2000
   29.7573   -7.3919    0.0000 C   0  0
   30.5745   -7.3919    0.0000 S   0  0
   30.8288   -6.6152    0.0000 C   0  0
   30.1659   -6.1331    0.0000 N   0  0
   29.5071   -6.6152    0.0000 C   0  0
   31.6064   -6.3637    0.0000 N   0  0
   32.2129   -6.9114    0.0000 C   0  0
   32.9905   -6.6599    0.0000 C   0  0
   32.0419   -7.7105    0.0000 O   0  0
   33.7146   -7.0321    0.0000 C   0  0
   34.0866   -6.3045    0.0000 C   0  0
   33.3590   -5.9325    0.0000 C   0  0
   28.7298   -6.3630    0.0000 C   0  0
   28.5596   -5.5638    0.0000 C   0  0
   28.1228   -6.9101    0.0000 C   0  0
   27.9372   -6.1454    0.0000 C   0  0
  1  2  1  0
  2  3  1  0
  3  4  2  0
  4  5  1  0
  5  1  2  0
  3  6  1  0
  6  7  1  0
  7  8  1  0
  7  9  2  0
  8 10  1  0
 10 11  1  0
 11 12  1  0
 12  8  1  0
  5 13  1  0
 13 14  1  0
 13 15  1  0
 13 16  1  0
M  END