
  SciTegic02271514372D

 28 30  0  0  0  0            999 V2000
    3.6624   -6.6852    0.0000 C   0  0
    3.6522   -5.8573    0.0000 C   0  0
    2.9315   -5.4599    0.0000 C   0  0
    2.9538   -7.1069    0.0000 O   0  0
    4.3842   -7.0907    0.0000 O   0  0
    4.3608   -5.4397    0.0000 N   0  0
    5.0825   -5.8411    0.0000 N   0  0
    5.8027   -4.5566    0.0000 S   0  0
    5.7688   -5.3822    0.0000 C   0  0
    6.5458   -5.6653    0.0000 N   0  0
    7.0521   -5.0165    0.0000 C   0  0
    6.5973   -4.3291    0.0000 C   0  0
    7.8777   -5.0503    0.0000 C   0  0
    8.2653   -5.7801    0.0000 C   0  0
    9.0898   -5.8099    0.0000 C   0  0
    9.5277   -5.1140    0.0000 C   0  0
    9.1431   -4.3845    0.0000 C   0  0
    8.3187   -4.3505    0.0000 C   0  0
    2.2190   -5.8785    0.0000 C   0  0
    1.5054   -5.4761    0.0000 C   0  0
    0.7939   -5.8987    0.0000 C   0  0
    0.8070   -6.7216    0.0000 C   0  0
    1.5247   -7.1282    0.0000 C   0  0
    2.2320   -6.7014    0.0000 C   0  0
    1.4923   -4.6531    0.0000 N   0  3
    2.1996   -4.2264    0.0000 O   0  0
    0.7706   -4.2476    0.0000 O   0  5
   10.3486   -5.1455    0.0000 O   0  0
  1  2  1  0
  2  3  1  0
  1  4  2  0
  1  5  1  0
  6  7  1  0
  8  9  1  0
  9 10  2  0
 10 11  1  0
 11 12  2  0
  8 12  1  0
 13 14  1  0
 14 15  2  0
 15 16  1  0
 16 17  2  0
 17 18  1  0
 13 18  2  0
 11 13  1  0
  7  9  1  0
  2  6  2  0
 19 20  1  0
 20 21  2  0
 21 22  1  0
 22 23  2  0
 23 24  1  0
 19 24  2  0
 25 26  2  0
 25 27  1  0
 20 25  1  0
  3 19  1  0
 16 28  1  0
M  CHG  2  25   1  27  -1
M  END