
  CDK    9/16/09,9:54

 22 24  0  0  0  0  0  0  0  0999 V2000
   13.2583   -6.1209    0.0000 C   0  0  0  0  0  0  0  0  0  0  0  0
   14.0833   -6.1209    0.0000 C   0  0  0  0  0  0  0  0  0  0  0  0
   14.3401   -5.3367    0.0000 N   0  0  0  0  0  0  0  0  0  0  0  0
   13.6708   -4.8500    0.0000 N   0  0  0  0  0  0  0  0  0  0  0  0
   13.0058   -5.3367    0.0000 C   0  0  0  0  0  0  0  0  0  0  0  0
   14.5660   -6.7867    0.0000 C   0  0  0  0  0  0  0  0  0  0  0  0
   14.2279   -7.5404    0.0000 C   0  0  0  0  0  0  0  0  0  0  0  0
   14.7113   -8.2080    0.0000 C   0  0  0  0  0  0  0  0  0  0  0  0
   15.5328   -8.1231    0.0000 C   0  0  0  0  0  0  0  0  0  0  0  0
   15.8685   -7.3648    0.0000 C   0  0  0  0  0  0  0  0  0  0  0  0
   15.3831   -6.7004    0.0000 C   0  0  0  0  0  0  0  0  0  0  0  0
   12.2210   -5.0821    0.0000 N   0  0  0  0  0  0  0  0  0  0  0  0
   11.6082   -5.6345    0.0000 C   0  0  0  0  0  0  0  0  0  0  0  0
   10.8243   -5.3774    0.0000 C   0  0  0  0  0  0  0  0  0  0  0  0
   10.2118   -5.9289    0.0000 C   0  0  0  0  0  0  0  0  0  0  0  0
   10.3834   -6.7368    0.0000 C   0  0  0  0  0  0  0  0  0  0  0  0
   11.1730   -6.9901    0.0000 C   0  0  0  0  0  0  0  0  0  0  0  0
   11.7822   -6.4369    0.0000 C   0  0  0  0  0  0  0  0  0  0  0  0
    9.7713   -7.2899    0.0000 C   0  0  0  0  0  0  0  0  0  0  0  0
    8.9862   -7.0363    0.0000 O   0  0  0  0  0  0  0  0  0  0  0  0
    9.9443   -8.0966    0.0000 N   0  0  0  0  0  0  0  0  0  0  0  0
   16.0178   -8.7905    0.0000 F   0  0  0  0  0  0  0  0  0  0  0  0
 11  6  1  0  0  0  0 
  2  6  1  0  0  0  0 
  1  2  2  0  0  0  0 
  5 12  1  0  0  0  0 
 12 13  1  0  0  0  0 
  6  7  2  0  0  0  0 
 13 14  2  0  0  0  0 
  2  3  1  0  0  0  0 
 14 15  1  0  0  0  0 
  7  8  1  0  0  0  0 
 15 16  2  0  0  0  0 
  3  4  1  0  0  0  0 
 16 17  1  0  0  0  0 
  8  9  2  0  0  0  0 
 17 18  2  0  0  0  0 
 18 13  1  0  0  0  0 
  4  5  2  0  0  0  0 
 16 19  1  0  0  0  0 
  9 10  1  0  0  0  0 
 19 20  2  0  0  0  0 
  5  1  1  0  0  0  0 
 19 21  1  0  0  0  0 
 10 11  2  0  0  0  0 
  9 22  1  0  0  0  0 
M  END