
  SciTegic04021211102D

 27 30  0  0  0  0            999 V2000
    9.7759    1.7368    0.0000 C   0  0
    9.7746    0.9119    0.0000 C   0  0
   10.4902    0.5003    0.0000 C   0  0
   11.2074    0.9124    0.0000 C   0  0
   11.2043    1.7406    0.0000 C   0  0
   10.4883    2.1526    0.0000 C   0  0
   11.9103    2.1577    0.0000 C   0  0
   12.6274    1.7431    0.0000 C   0  0
   13.3404    2.1607    0.0000 C   0  0
   13.3375    2.9841    0.0000 N   0  0
   12.6155    3.3923    0.0000 C   0  0
   11.9057    2.9765    0.0000 N   0  0
   10.4900   -0.3265    0.0000 O   0  0
   11.2049   -0.7380    0.0000 C   0  0
   11.9158   -0.3269    0.0000 C   0  0
   12.6308   -0.7383    0.0000 C   0  0
   10.4856    2.9751    0.0000 C   0  0
   12.6092    4.2240    0.0000 N   0  0
   13.3462   -0.3273    0.0000 C   0  0
   14.0611   -0.7387    0.0000 O   0  0
   14.7720   -0.3277    0.0000 C   0  0
   15.4838   -0.7391    0.0000 C   0  0
   16.1985   -0.3288    0.0000 C   0  0
   16.1992    0.4989    0.0000 C   0  0
   15.4789    0.9102    0.0000 C   0  0
   14.7672    0.4973    0.0000 C   0  0
   15.4760    1.7326    0.0000 S   0  0
  3 13  1  0
  1  2  2  0
 13 14  1  0
  3  4  2  0
 14 15  1  0
  7  8  2  0
 15 16  1  0
  6 17  1  0
  8  9  1  0
 11 18  1  0
  4  5  1  0
 16 19  1  0
  9 10  2  0
 19 20  1  0
  2  3  1  0
 20 21  1  0
 10 11  1  0
 21 22  2  0
  5  6  2  0
 22 23  1  0
 11 12  2  0
 23 24  2  0
 12  7  1  0
 24 25  1  0
  5  7  1  0
 25 26  2  0
 26 21  1  0
  6  1  1  0
 25 27  1  0
  9 27  1  0
M  END