
          11280715472D 1   1.00000     0.00000     0

 35 37  0     0  0            999 V2000
   -2.1583   -0.1042    0.0000 S   0  0  3  0  0  0           0  0  0
   -1.4458   -0.5167    0.0000 N   0  0  3  0  0  0           0  0  0
    1.4375    1.1083    0.0000 C   0  0  0  0  0  0           0  0  0
   -0.7208   -0.1167    0.0000 C   0  0  0  0  0  0           0  0  0
    0.7167    0.7083    0.0000 N   0  0  0  0  0  0           0  0  0
   -2.1583    0.7208    0.0000 C   0  0  0  0  0  0           0  0  0
   -0.0083   -0.5292    0.0000 C   0  0  3  0  0  0           0  0  0
    0.7042   -0.1167    0.0000 C   0  0  3  0  0  0           0  0  0
   -2.8708   -0.5042    0.0000 O   0  0  0  0  0  0           0  0  0
   -2.8750    0.3000    0.0000 O   0  0  0  0  0  0           0  0  0
   -1.4458   -1.3417    0.0000 C   0  0  0  0  0  0           0  0  0
    2.1542    0.6833    0.0000 O   0  0  0  0  0  0           0  0  0
    1.4292    1.9333    0.0000 O   0  0  0  0  0  0           0  0  0
    1.4167   -0.5417    0.0000 C   0  0  0  0  0  0           0  0  0
    4.1917    1.2333    0.0000 O   0  0  0  0  0  0           0  0  0
   -1.4375    1.1333    0.0000 C   0  0  0  0  0  0           0  0  0
   -2.8708    1.1333    0.0000 C   0  0  0  0  0  0           0  0  0
   -2.1583    2.3708    0.0000 C   0  0  0  0  0  0           0  0  0
   -0.0208   -1.3417    0.0000 O   0  0  0  0  0  0           0  0  0
   -2.1583    3.1958    0.0000 N   0  0  0  0  0  0           0  0  0
    1.4042   -1.3667    0.0000 C   0  0  0  0  0  0           0  0  0
   -1.4375    1.9583    0.0000 C   0  0  0  0  0  0           0  0  0
   -2.8708    1.9583    0.0000 C   0  0  0  0  0  0           0  0  0
    2.8667    1.0958    0.0000 C   0  0  3  0  0  0           0  0  0
    3.0417    1.8958    0.0000 C   0  0  0  0  0  0           0  0  0
    3.8625    1.9833    0.0000 C   0  0  0  0  0  0           0  0  0
   -2.1708   -1.7542    0.0000 C   0  0  3  0  0  0           0  0  0
    3.5792    0.6833    0.0000 C   0  0  0  0  0  0           0  0  0
    2.1167   -1.7917    0.0000 C   0  0  0  0  0  0           0  0  0
    0.6792   -1.7667    0.0000 C   0  0  0  0  0  0           0  0  0
   -2.1750   -2.5792    0.0000 C   0  0  0  0  0  0           0  0  0
   -2.8833   -1.3292    0.0000 C   0  0  0  0  0  0           0  0  0
    2.1042   -2.6167    0.0000 C   0  0  0  0  0  0           0  0  0
    0.6667   -2.6000    0.0000 C   0  0  0  0  0  0           0  0  0
    1.3792   -3.0167    0.0000 C   0  0  0  0  0  0           0  0  0
  2  1  1  0     0  0
  3  5  1  0     0  0
  4  2  1  0     0  0
  5  8  1  0     0  0
  6  1  1  0     0  0
  7  4  1  0     0  0
  8  7  1  0     0  0
  9  1  2  0     0  0
 10  1  2  0     0  0
 11  2  1  0     0  0
 12  3  1  0     0  0
 13  3  2  0     0  0
 14  8  1  0     0  0
 15 28  1  0     0  0
 16  6  2  0     0  0
 17  6  1  0     0  0
 18 23  1  0     0  0
 19  7  1  0     0  0
 20 18  1  0     0  0
 21 14  1  0     0  0
 22 16  1  0     0  0
 23 17  2  0     0  0
 24 12  1  0     0  0
 25 24  1  0     0  0
 26 25  1  0     0  0
 27 11  1  0     0  0
 28 24  1  0     0  0
 29 21  1  0     0  0
 30 21  2  0     0  0
 31 27  1  0     0  0
 32 27  1  0     0  0
 33 29  2  0     0  0
 34 30  1  0     0  0
 35 34  2  0     0  0
 18 22  2  0     0  0
 35 33  1  0     0  0
 15 26  1  0     0  0
M  END