
  SciTegic05061116452D

 29 32  0  0  0  0            999 V2000
    5.4069    1.9625    0.0000 C   0  0
    5.4057    1.1352    0.0000 C   0  0
    6.1206    0.7223    0.0000 C   0  0
    6.1188    2.3753    0.0000 C   0  0
    6.8341    1.9662    0.0000 C   0  0
    6.8349    1.1393    0.0000 C   0  0
    7.5502    0.7284    0.0000 N   0  0
    8.2652    1.1431    0.0000 C   0  0
    8.2605    1.9731    0.0000 C   0  0
    7.5446    2.3803    0.0000 N   0  0
    8.9813    0.7334    0.0000 O   0  0
    8.9845   -0.0916    0.0000 C   0  0
    9.7006   -0.5013    0.0000 C   0  0
    8.9724    2.3899    0.0000 C   0  0
    9.6894    1.9818    0.0000 N   0  0
    9.6904    1.1530    0.0000 C   0  0
   10.4032    0.7449    0.0000 C   0  0
   11.1176    1.1582    0.0000 N   0  0
   11.1146    1.9842    0.0000 C   0  0
   10.3971    2.3968    0.0000 C   0  0
    8.9674    3.2149    0.0000 O   0  0
   11.8331    0.7474    0.0000 C   0  0
   11.8325   -0.0761    0.0000 C   0  0
   12.5470   -0.4869    0.0000 C   0  0
   13.2615   -0.0727    0.0000 C   0  0
   13.2570    0.7566    0.0000 C   0  0
   12.5418    1.1636    0.0000 C   0  0
   12.5362    1.9886    0.0000 O   0  0
   13.2478    2.4060    0.0000 C   0  0
  9 14  1  0
  6  7  1  0
 14 15  1  0
 15 16  1  0
  1  2  2  0
  7  8  2  0
  5  4  2  0
  8  9  1  0
  4  1  1  0
 15 20  1  0
 16 17  1  0
 17 18  1  0
 18 19  1  0
 19 20  1  0
  9 10  2  0
 14 21  2  0
 10  5  1  0
 18 22  1  0
 22 23  2  0
  8 11  1  0
 23 24  1  0
  2  3  1  0
 24 25  2  0
 11 12  1  0
 25 26  1  0
  5  6  1  0
 26 27  2  0
 27 22  1  0
 12 13  1  0
 27 28  1  0
  3  6  2  0
 28 29  1  0
M  END