
  CDK    9/15/10,16:21

 54 59  0  0  0  0  0  0  0  0999 V2000
    0.2500    5.4500    0.0000 C   0  0  0  0  0  0  0  0  0  0  0  0
    0.9625    6.6875    0.0000 C   0  0  0  0  0  0  0  0  0  0  0  0
    0.9625    5.8542    0.0000 C   0  0  0  0  0  0  0  0  0  0  0  0
    0.2500    4.6292    0.0000 C   0  0  0  0  0  0  0  0  0  0  0  0
    0.2500    7.0917    0.0000 O   0  0  0  0  0  0  0  0  0  0  0  0
    0.9625    4.2167    0.0000 C   0  0  0  0  0  0  0  0  0  0  0  0
   -0.4708    6.6875    0.0000 C   0  0  0  0  0  0  0  0  0  0  0  0
   -0.4708    5.8542    0.0000 C   0  0  0  0  0  0  0  0  0  0  0  0
    1.6750    7.0917    0.0000 C   0  0  0  0  0  0  0  0  0  0  0  0
    1.6750    5.4500    0.0000 C   0  0  0  0  0  0  0  0  0  0  0  0
    0.9625    3.3833    0.0000 C   0  0  0  0  0  0  0  0  0  0  0  0
    1.7875    4.2167    0.0000 C   0  0  0  0  0  0  0  0  0  0  0  0
   -1.1708   -4.4542    0.0000 N   0  0  0  0  0  0  0  0  0  0  0  0
    0.2500    2.1458    0.0000 C   0  0  0  0  0  0  0  0  0  0  0  0
    0.2500    2.9708    0.0000 C   0  0  0  0  0  0  0  0  0  0  0  0
    2.3917    6.6875    0.0000 C   0  0  0  0  0  0  0  0  0  0  0  0
    3.1125    7.0917    0.0000 N   0  0  0  0  0  0  0  0  0  0  0  0
   -0.4708    4.2167    0.0000 C   0  0  0  0  0  0  0  0  0  0  0  0
   -0.4583   -4.0417    0.0000 C   0  0  0  0  0  0  0  0  0  0  0  0
   -1.1833    7.0917    0.0000 C   0  0  0  0  0  0  0  0  0  0  0  0
    2.3917    5.8542    0.0000 C   0  0  0  0  0  0  0  0  0  0  0  0
   -1.1833    5.4500    0.0000 C   0  0  0  0  0  0  0  0  0  0  0  0
   -0.4625   -3.2167    0.0000 N   0  0  0  0  0  0  0  0  0  0  0  0
    2.1917    3.5083    0.0000 O   0  0  0  0  0  0  0  0  0  0  0  0
   -1.1625   -5.2667    0.0000 C   0  0  0  0  0  0  0  0  0  0  0  0
   -0.4708    3.3833    0.0000 C   0  0  0  0  0  0  0  0  0  0  0  0
    2.1917    4.9292    0.0000 O   0  0  0  0  0  0  0  0  0  0  0  0
    0.9667    1.7333    0.0000 O   0  0  0  0  0  0  0  0  0  0  0  0
   -1.8833   -4.0292    0.0000 C   0  0  0  0  0  0  0  0  0  0  0  0
   -1.8958    6.6875    0.0000 C   0  0  0  0  0  0  0  0  0  0  0  0
   -0.4625    1.7333    0.0000 N   0  0  0  0  0  0  0  0  0  0  0  0
   -1.8750   -5.6917    0.0000 C   0  0  0  0  0  0  0  0  0  0  0  0
   -2.6083   -2.7917    0.0000 N   0  0  0  0  0  0  0  0  0  0  0  0
   -1.8958    5.8542    0.0000 C   0  0  0  0  0  0  0  0  0  0  0  0
   -1.8833   -3.2167    0.0000 C   0  0  0  0  0  0  0  0  0  0  0  0
   -3.3000   -6.5167    0.0000 C   0  0  0  0  0  0  0  0  0  0  0  0
   -2.6208    7.0917    0.0000 N   0  0  0  0  0  0  0  0  0  0  0  0
   -2.5958   -5.2792    0.0000 C   0  0  0  0  0  0  0  0  0  0  0  0
   -1.8708   -6.5042    0.0000 C   0  0  0  0  0  0  0  0  0  0  0  0
   -2.5833   -6.9292    0.0000 C   0  0  0  0  0  0  0  0  0  0  0  0
   -3.3083   -5.6917    0.0000 C   0  0  0  0  0  0  0  0  0  0  0  0
   -4.0208   -6.9292    0.0000 O   0  0  0  0  0  0  0  0  0  0  0  0
    0.2625   -4.4417    0.0000 C   0  0  0  0  0  0  0  0  0  0  0  0
    0.2542   -2.7917    0.0000 C   0  0  0  0  0  0  0  0  0  0  0  0
   -0.4625    0.9083    0.0000 C   0  0  0  0  0  0  0  0  0  0  0  0
   -2.6083   -1.9667    0.0000 C   0  0  0  0  0  0  0  0  0  0  0  0
   -3.3250   -3.2042    0.0000 C   0  0  0  0  0  0  0  0  0  0  0  0
   -4.0208   -7.7542    0.0000 C   0  0  0  0  0  0  0  0  0  0  0  0
   -1.8958   -1.5542    0.0000 C   0  0  0  0  0  0  0  0  0  0  0  0
   -1.1833    0.5083    0.0000 C   0  0  0  0  0  0  0  0  0  0  0  0
   -1.1833   -0.3167    0.0000 C   0  0  0  0  0  0  0  0  0  0  0  0
   -1.8958   -0.7292    0.0000 C   0  0  0  0  0  0  0  0  0  0  0  0
    0.9667   -4.0292    0.0000 C   0  0  0  0  0  0  0  0  0  0  0  0
    0.9667   -3.2042    0.0000 C   0  0  0  0  0  0  0  0  0  0  0  0
  2  3  1  0  0  0  0 
  3  1  2  0  0  0  0 
  4  1  1  0  0  0  0 
  5  7  1  0  0  0  0 
  6  4  2  0  0  0  0 
  7  8  2  0  0  0  0 
  8  1  1  0  0  0  0 
  9  2  2  0  0  0  0 
 10  3  1  0  0  0  0 
 11  6  1  0  0  0  0 
 12  6  1  0  0  0  0 
 13 29  1  0  0  0  0 
 14 15  1  0  0  0  0 
 15 26  1  0  0  0  0 
 16 21  1  0  0  0  0 
 17 16  2  0  0  0  0 
 18  4  1  0  0  0  0 
 19 13  1  0  0  0  0 
 20  7  1  0  0  0  0 
 21 10  2  0  0  0  0 
 22  8  1  0  0  0  0 
 23 19  2  0  0  0  0 
 24 12  1  0  0  0  0 
 25 13  1  0  0  0  0 
 26 18  2  0  0  0  0 
 27 12  2  0  0  0  0 
 28 14  2  0  0  0  0 
 29 35  1  0  0  0  0 
 30 34  1  0  0  0  0 
 31 14  1  0  0  0  0 
 32 25  1  0  0  0  0 
 33 46  1  0  0  0  0 
 34 22  2  0  0  0  0 
 35 33  1  0  0  0  0 
 36 40  1  0  0  0  0 
 37 30  1  0  0  0  0 
 38 32  2  0  0  0  0 
 39 32  1  0  0  0  0 
 40 39  2  0  0  0  0 
 41 38  1  0  0  0  0 
 42 36  1  0  0  0  0 
 43 19  1  0  0  0  0 
 44 23  1  0  0  0  0 
 45 31  1  0  0  0  0 
 46 49  1  0  0  0  0 
 47 33  1  0  0  0  0 
 48 42  1  0  0  0  0 
 49 52  1  0  0  0  0 
 50 45  1  0  0  0  0 
 51 50  1  0  0  0  0 
 52 51  1  0  0  0  0 
 53 43  2  0  0  0  0 
 54 53  1  0  0  0  0 
  2  5  1  0  0  0  0 
 20 30  2  0  0  0  0 
 15 11  2  0  0  0  0 
 16  9  1  0  0  0  0 
 41 36  2  0  0  0  0 
 44 54  2  0  0  0  0 
M  END