
          11280715072D 1   1.00000     0.00000     0

 41 44  0     0  0            999 V2000
    8.3750    0.1500    0.0000 C   0  0  0  0  0  0           0  0  0
   -0.1958    0.0458    0.0000 C   0  0  0  0  0  0           0  0  0
    9.0917   -0.2417    0.0000 C   0  0  0  0  0  0           0  0  0
   -0.9000   -0.3792    0.0000 C   0  0  0  0  0  0           0  0  0
    7.6625   -0.2792    0.0000 C   0  0  0  0  0  0           0  0  0
    0.5292   -0.3542    0.0000 C   0  0  0  0  0  0           0  0  0
    9.1125   -1.0667    0.0000 C   0  0  0  0  0  0           0  0  0
   -0.8875   -1.2042    0.0000 C   0  0  0  0  0  0           0  0  0
    7.6875   -1.1042    0.0000 C   0  0  0  0  0  0           0  0  0
    0.5417   -1.1875    0.0000 C   0  0  0  0  0  0           0  0  0
   -0.1708   -1.6042    0.0000 C   0  0  0  0  0  0           0  0  0
    8.4125   -1.5000    0.0000 C   0  0  0  0  0  0           0  0  0
    8.3542    0.9750    0.0000 C   0  0  0  0  0  0           0  0  0
   -0.2083    0.8708    0.0000 C   0  0  0  0  0  0           0  0  0
   -0.3333   -2.4167    0.0000 O   0  0  0  0  0  0           0  0  0
    8.6042   -2.3042    0.0000 O   0  0  0  0  0  0           0  0  0
    9.7417   -1.6042    0.0000 C   0  0  0  0  0  0           0  0  0
   -1.4958   -1.7625    0.0000 C   0  0  0  0  0  0           0  0  0
    9.4250   -2.3667    0.0000 C   0  0  0  0  0  0           0  0  0
   -1.1500   -2.5125    0.0000 C   0  0  0  0  0  0           0  0  0
    9.0625    1.4083    0.0000 O   0  0  0  0  0  0           0  0  0
   -0.9333    1.2708    0.0000 O   0  0  0  0  0  0           0  0  0
   -1.6208    0.0250    0.0000 O   0  0  0  0  0  0           0  0  0
    9.8000    0.1833    0.0000 O   0  0  0  0  0  0           0  0  0
    6.9542    0.1458    0.0000 O   0  0  0  0  0  0           0  0  0
    1.2417    0.0625    0.0000 O   0  0  0  0  0  0           0  0  0
    1.2542   -1.5917    0.0000 O   0  0  0  0  0  0           0  0  0
    6.9875   -1.5375    0.0000 O   0  0  0  0  0  0           0  0  0
    0.5000    1.2958    0.0000 C   0  0  0  0  0  0           0  0  0
    7.6292    1.3708    0.0000 C   0  0  0  0  0  0           0  0  0
    1.9625   -0.3417    0.0000 C   0  0  0  0  0  0           0  0  0
    6.2417   -0.2792    0.0000 C   0  0  0  0  0  0           0  0  0
   10.5167   -0.2125    0.0000 C   0  0  0  0  0  0           0  0  0
   -2.3333   -0.4000    0.0000 C   0  0  0  0  0  0           0  0  0
    7.0042   -2.3625    0.0000 C   0  0  0  0  0  0           0  0  0
    1.2667   -2.4167    0.0000 C   0  0  0  0  0  0           0  0  0
    5.5292    0.1208    0.0000 C   0  0  0  0  0  0           0  0  0
    2.6667    0.0833    0.0000 C   0  0  0  0  0  0           0  0  0
    4.8167   -0.3000    0.0000 C   0  0  0  0  0  0           0  0  0
    3.3917   -0.3167    0.0000 C   0  0  0  0  0  0           0  0  0
    4.1000    0.1083    0.0000 C   0  0  0  0  0  0           0  0  0
  2  6  1  0     0  0
  3  1  2  0     0  0
  4  2  2  0     0  0
  5  1  1  0     0  0
  6 26  1  0     0  0
  7  3  1  0     0  0
  8 11  2  0     0  0
  9  5  2  0     0  0
 10  6  2  0     0  0
 11 10  1  0     0  0
 12  9  1  0     0  0
 13  1  1  0     0  0
 14  2  1  0     0  0
 15 11  1  0     0  0
 16 12  1  0     0  0
 17  7  1  0     0  0
 18  8  1  0     0  0
 19 17  2  0     0  0
 20 15  1  0     0  0
 21 13  2  0     0  0
 22 14  2  0     0  0
 23  4  1  0     0  0
 24  3  1  0     0  0
 25  5  1  0     0  0
 26 31  1  0     0  0
 27 10  1  0     0  0
 28  9  1  0     0  0
 29 14  1  0     0  0
 30 13  1  0     0  0
 31 38  1  0     0  0
 32 25  1  0     0  0
 33 24  1  0     0  0
 34 23  1  0     0  0
 35 28  1  0     0  0
 36 27  1  0     0  0
 37 32  1  0     0  0
 38 40  1  0     0  0
 39 37  1  0     0  0
 40 41  1  0     0  0
 41 39  1  0     0  0
 12  7  2  0     0  0
 16 19  1  0     0  0
  8  4  1  0     0  0
 20 18  2  0     0  0
M  END