
  SciTegic03151118422D

 23 23  0  0  0  0            999 V2000
    3.0981    7.5000    0.0000 C   0  0
    3.0981    4.5000    0.0000 C   0  0
    7.4282    5.0000    0.0000 C   0  0
    7.4282    6.0000    0.0000 C   0  0
    6.5622    4.5000    0.0000 C   0  0
    6.5622    6.5000    0.0000 C   0  0
    5.6962    5.0000    0.0000 C   0  0
    3.9641    6.0000    0.0000 C   0  0
    4.8301    6.5000    0.0000 C   0  0
    0.5000    3.0000    0.0000 C   0  0
    2.2321    3.0000    0.0000 C   0  0
    0.5000    2.0000    0.0000 C   0  0
    2.2321    2.0000    0.0000 C   0  0
    3.0981    6.5000    0.0000 C   0  0
    2.2321    5.0000    0.0000 C   0  0
    5.6962    6.0000    0.0000 C   0  0
    1.3660    3.5000    0.0000 C   0  0
    1.3660    1.5000    0.0000 C   0  0
    1.3660    4.5000    0.0000 C   0  0
    2.2321    6.0000    0.0000 N   0  0
    1.3660    0.5000    0.0000 O   0  0
    0.5000    5.0000    0.0000 O   0  0
    0.0000    0.0000    0.0000 Cl  0  0
  1 14  1  0
  2 15  1  0
  3  4  2  0
  3  5  1  0
  4  6  1  0
  5  7  2  0
  6 16  2  0
  7 16  1  0
  8  9  1  0
  8 14  1  0
  9 16  1  0
 10 12  1  0
 10 17  2  0
 11 13  2  0
 11 17  1  0
 12 18  2  0
 13 18  1  0
 14 20  1  0
 15 19  1  0
 15 20  1  0
 17 19  1  0
 18 21  1  0
 19 22  1  0
M  END