
  Mrv0541 04051115152D          

 31 35  0  0  0  0            999 V2000
   -3.4104   -0.8753    0.0000 N   0  0  0  0  0  0  0  0  0  0  0  0
   -2.9979   -1.5897    0.0000 C   0  0  0  0  0  0  0  0  0  0  0  0
   -2.1729   -1.5897    0.0000 N   0  0  0  0  0  0  0  0  0  0  0  0
   -2.9979   -0.1608    0.0000 C   0  0  0  0  0  0  0  0  0  0  0  0
   -0.9534   -0.7037    0.0000 N   0  0  0  0  0  0  0  0  0  0  0  0
   -0.8672    0.1167    0.0000 C   0  0  0  0  0  0  0  0  0  0  0  0
   -1.6208    0.4523    0.0000 N   0  0  0  0  0  0  0  0  0  0  0  0
   -2.1729   -0.1608    0.0000 C   0  0  0  0  0  0  0  0  0  0  0  0
   -1.7604   -0.8753    0.0000 C   0  0  0  0  0  0  0  0  0  0  0  0
   -0.3403   -1.2558    0.0000 C   0  0  2  0  0  0  0  0  0  0  0  0
   -0.4265   -2.0763    0.0000 O   0  0  0  0  0  0  0  0  0  0  0  0
    0.3271   -2.4118    0.0000 C   0  0  1  0  0  0  0  0  0  0  0  0
    0.8792   -1.7987    0.0000 C   0  0  2  0  0  0  0  0  0  0  0  0
    0.4667   -1.0843    0.0000 C   0  0  1  0  0  0  0  0  0  0  0  0
   -3.4104    0.5537    0.0000 N   0  0  0  0  0  0  0  0  0  0  0  0
   -0.1527    0.5292    0.0000 N   0  0  0  0  0  0  0  0  0  0  0  0
   -0.1527    1.3542    0.0000 C   0  0  0  0  0  0  0  0  0  0  0  0
    0.5618    1.7667    0.0000 C   0  0  0  0  0  0  0  0  0  0  0  0
    1.2763    1.3542    0.0000 N   0  0  0  0  0  0  0  0  0  0  0  0
    1.2763    3.0042    0.0000 C   0  0  0  0  0  0  0  0  0  0  0  0
    0.5618    2.5917    0.0000 C   0  0  0  0  0  0  0  0  0  0  0  0
    1.9907    2.5917    0.0000 C   0  0  0  0  0  0  0  0  0  0  0  0
    1.9907    1.7667    0.0000 C   0  0  0  0  0  0  0  0  0  0  0  0
    2.7052    1.3542    0.0000 C   0  0  0  0  0  0  0  0  0  0  0  0
    3.4197    1.7667    0.0000 C   0  0  0  0  0  0  0  0  0  0  0  0
    3.4197    2.5917    0.0000 C   0  0  0  0  0  0  0  0  0  0  0  0
    2.7052    3.0042    0.0000 C   0  0  0  0  0  0  0  0  0  0  0  0
    0.4987   -3.2188    0.0000 C   0  0  0  0  0  0  0  0  0  0  0  0
    1.2833   -3.4737    0.0000 O   0  0  0  0  0  0  0  0  0  0  0  0
    1.6997   -1.8850    0.0000 O   0  0  0  0  0  0  0  0  0  0  0  0
    0.8022   -0.3306    0.0000 O   0  0  0  0  0  0  0  0  0  0  0  0
  2  1  2  0  0  0  0
  4  1  1  0  0  0  0
  2  3  1  0  0  0  0
  9  3  2  0  0  0  0
  4  8  2  0  0  0  0
  4 15  1  0  0  0  0
 10  5  1  1  0  0  0
  6  5  1  0  0  0  0
  9  5  1  0  0  0  0
  6 16  1  0  0  0  0
  6  7  2  0  0  0  0
  8  7  1  0  0  0  0
  8  9  1  0  0  0  0
 10 14  1  0  0  0  0
 10 11  1  0  0  0  0
 12 11  1  0  0  0  0
 12 13  1  0  0  0  0
 12 28  1  1  0  0  0
 13 30  1  6  0  0  0
 13 14  1  0  0  0  0
 14 31  1  6  0  0  0
 17 16  1  0  0  0  0
 17 18  1  0  0  0  0
 18 21  2  0  0  0  0
 18 19  1  0  0  0  0
 23 19  2  0  0  0  0
 20 22  2  0  0  0  0
 20 21  1  0  0  0  0
 22 27  1  0  0  0  0
 22 23  1  0  0  0  0
 23 24  1  0  0  0  0
 24 25  2  0  0  0  0
 25 26  1  0  0  0  0
 26 27  2  0  0  0  0
 28 29  1  0  0  0  0
M  END