
          11280715452D 1   1.00000     0.00000     0

 39 43  0     1  0            999 V2000
   -1.6208    0.7708    0.0000 C   0  0  0  0  0  0           0  0  0
   -0.9083    0.3583    0.0000 C   0  0  1  0  0  0           0  0  0
   -2.3375    0.3583    0.0000 N   0  0  0  0  0  0           0  0  0
    2.6875    0.7708    0.0000 N   0  0  0  0  0  0           0  0  0
   -3.0625    0.7708    0.0000 C   0  0  3  0  0  0           0  0  0
    3.4000    0.3583    0.0000 C   0  0  3  0  0  0           0  0  0
    1.9667    0.3583    0.0000 C   0  0  0  0  0  0           0  0  0
   -3.8125    0.4333    0.0000 C   0  0  0  0  0  0           0  0  0
    3.4917   -0.4542    0.0000 C   0  0  0  0  0  0           0  0  0
   -4.3625    1.0458    0.0000 C   0  0  0  0  0  0           0  0  0
    4.2917   -0.6292    0.0000 C   0  0  0  0  0  0           0  0  0
    4.1542    0.6958    0.0000 C   0  0  1  0  0  0           0  0  0
   -3.1458    1.5958    0.0000 C   0  0  2  0  0  0           0  0  0
   -0.1833    0.7708    0.0000 C   0  0  1  0  0  0           0  0  0
    0.5292    0.3583    0.0000 C   0  0  0  0  0  0           0  0  0
   -3.9583    1.7625    0.0000 C   0  0  0  0  0  0           0  0  0
    4.7042    0.0833    0.0000 C   0  0  0  0  0  0           0  0  0
   -0.9083   -0.4667    0.0000 O   0  0  0  0  0  0           0  0  0
    1.2500    0.7708    0.0000 C   0  0  1  0  0  0           0  0  0
   -1.6208    1.5958    0.0000 O   0  0  0  0  0  0           0  0  0
    1.9667   -0.4667    0.0000 O   0  0  0  0  0  0           0  0  0
   -2.5333    2.1458    0.0000 O   0  0  0  0  0  0           0  0  0
    4.3250    1.5083    0.0000 O   0  0  0  0  0  0           0  0  0
   -0.4958   -1.1792    0.0000 C   0  0  0  0  0  0           0  0  0
   -0.1833    1.5958    0.0000 O   0  0  0  0  0  0           0  0  0
    1.2500    1.5958    0.0000 O   0  0  0  0  0  0           0  0  0
   -4.0625   -0.3417    0.0000 C   0  0  0  0  0  0           0  0  0
    2.9375   -1.0667    0.0000 C   0  0  0  0  0  0           0  0  0
   -5.1708    0.8833    0.0000 C   0  0  0  0  0  0           0  0  0
    4.5375   -1.4042    0.0000 C   0  0  0  0  0  0           0  0  0
    0.3125   -1.1792    0.0000 C   0  0  0  0  0  0           0  0  0
   -0.9125   -1.8792    0.0000 C   0  0  0  0  0  0           0  0  0
   -4.8708   -0.5167    0.0000 C   0  0  0  0  0  0           0  0  0
    3.1917   -1.8417    0.0000 C   0  0  0  0  0  0           0  0  0
   -5.4208    0.0958    0.0000 C   0  0  0  0  0  0           0  0  0
    3.9917   -2.0167    0.0000 C   0  0  0  0  0  0           0  0  0
   -0.5083   -2.5917    0.0000 C   0  0  0  0  0  0           0  0  0
    0.7167   -1.8792    0.0000 C   0  0  0  0  0  0           0  0  0
    0.3042   -2.5917    0.0000 C   0  0  0  0  0  0           0  0  0
  2  1  1  0     0  0
  3  1  1  0     0  0
  4  7  1  0     0  0
  5  3  1  0     0  0
  6  4  1  0     0  0
  7 19  1  0     0  0
  8  5  1  0     0  0
  9  6  1  0     0  0
 10  8  2  0     0  0
 11  9  2  0     0  0
 12  6  1  0     0  0
 13  5  1  0     0  0
 14  2  1  0     0  0
 15 14  1  0     0  0
 16 13  1  0     0  0
 17 12  1  0     0  0
  2 18  1  1     0  0
 19 15  1  0     0  0
 20  1  2  0     0  0
 21  7  2  0     0  0
 13 22  1  6     0  0
 12 23  1  6     0  0
 24 18  1  0     0  0
 14 25  1  6     0  0
 19 26  1  1     0  0
 27  8  1  0     0  0
 28  9  1  0     0  0
 29 10  1  0     0  0
 30 11  1  0     0  0
 31 24  1  0     0  0
 32 24  2  0     0  0
 33 27  2  0     0  0
 34 28  2  0     0  0
 35 33  1  0     0  0
 36 34  1  0     0  0
 37 32  1  0     0  0
 38 31  2  0     0  0
 39 37  2  0     0  0
 10 16  1  0     0  0
 29 35  2  0     0  0
 38 39  1  0     0  0
 11 17  1  0     0  0
 30 36  2  0     0  0
M  END