
  CDK    6/4/10,11:41

 25 27  0  0  0  0  0  0  0  0999 V2000
   -4.0889    0.6917    0.0000 C   0  0  0  0  0  0  0  0  0  0  0  0
   -4.0901   -0.1357    0.0000 C   0  0  0  0  0  0  0  0  0  0  0  0
   -3.3753   -0.5485    0.0000 C   0  0  0  0  0  0  0  0  0  0  0  0
   -3.3771    1.1045    0.0000 C   0  0  0  0  0  0  0  0  0  0  0  0
   -2.6617    0.6953    0.0000 C   0  0  0  0  0  0  0  0  0  0  0  0
   -2.6614   -0.1357    0.0000 C   0  0  0  0  0  0  0  0  0  0  0  0
   -1.8710   -0.3923    0.0000 N   0  0  0  0  0  0  0  0  0  0  0  0
   -1.3826    0.2802    0.0000 C   0  0  0  0  0  0  0  0  0  0  0  0
   -1.8714    0.9523    0.0000 C   0  0  0  0  0  0  0  0  0  0  0  0
   -4.8035    1.1040    0.0000 O   0  0  0  0  0  0  0  0  0  0  0  0
   -4.8037    1.9290    0.0000 C   0  0  0  0  0  0  0  0  0  0  0  0
   -1.6167    1.7370    0.0000 C   0  0  0  0  0  0  0  0  0  0  0  0
   -0.8098    1.9088    0.0000 C   0  0  0  0  0  0  0  0  0  0  0  0
   -0.5551    2.6935    0.0000 N   0  0  0  0  0  0  0  0  0  0  0  0
    0.2518    2.8653    0.0000 C   0  0  0  0  0  0  0  0  0  0  0  0
   -1.1073    3.3064    0.0000 C   0  0  0  0  0  0  0  0  0  0  0  0
   -1.8716   -1.2185    0.0000 S   0  0  0  0  0  0  0  0  0  0  0  0
   -2.5862   -1.6308    0.0000 C   0  0  0  0  0  0  0  0  0  0  0  0
   -3.2984   -1.2173    0.0000 C   0  0  0  0  0  0  0  0  0  0  0  0
   -4.0125   -1.6289    0.0000 C   0  0  0  0  0  0  0  0  0  0  0  0
   -4.0132   -2.4548    0.0000 C   0  0  0  0  0  0  0  0  0  0  0  0
   -3.2939   -2.8673    0.0000 C   0  0  0  0  0  0  0  0  0  0  0  0
   -2.5827   -2.4534    0.0000 C   0  0  0  0  0  0  0  0  0  0  0  0
   -1.0654   -1.0409    0.0000 O   0  0  0  0  0  0  0  0  0  0  0  0
   -1.7042   -2.0204    0.0000 O   0  0  0  0  0  0  0  0  0  0  0  0
  9 12  1  0  0  0  0 
  2  3  1  0  0  0  0 
 12 13  1  0  0  0  0 
  3  6  2  0  0  0  0 
 13 14  1  0  0  0  0 
  1  2  2  0  0  0  0 
 14 15  1  0  0  0  0 
  5  4  2  0  0  0  0 
 14 16  1  0  0  0  0 
  6  7  1  0  0  0  0 
  7 17  1  0  0  0  0 
  7  8  1  0  0  0  0 
 17 18  1  0  0  0  0 
  8  9  2  0  0  0  0 
 18 19  2  0  0  0  0 
  9  5  1  0  0  0  0 
 19 20  1  0  0  0  0 
  4  1  1  0  0  0  0 
 20 21  2  0  0  0  0 
  1 10  1  0  0  0  0 
 21 22  1  0  0  0  0 
  5  6  1  0  0  0  0 
 22 23  2  0  0  0  0 
 23 18  1  0  0  0  0 
 10 11  1  0  0  0  0 
 17 24  2  0  0  0  0 
 17 25  2  0  0  0  0 
M  END