
          11280715232D 1   1.00000     0.00000     0

 57 61  0     1  0            999 V2000
    3.4042   -7.0667    0.0000 N   0  0  0  0  0  0           0  0  0
    5.1167   -5.4000    0.0000 N   0  0  0  0  0  0           0  0  0
    1.0667   -6.5417    0.0000 N   0  0  0  0  0  0           0  0  0
    4.7417   -6.1375    0.0000 C   0  0  0  0  0  0           0  0  0
    5.4417   -7.3292    0.0000 C   0  0  0  0  0  0           0  0  0
    2.5792   -7.1542    0.0000 C   0  0  0  0  0  0           0  0  0
    0.5417   -5.9042    0.0000 C   0  0  0  0  0  0           0  0  0
    4.1500   -6.7167    0.0000 C   0  0  2  0  0  0           0  0  0
    5.2292   -4.5792    0.0000 C   0  0  1  0  0  0           0  0  0
    6.7417   -7.6292    0.0000 N   0  0  0  0  0  0           0  0  0
    5.0667   -3.7667    0.0000 C   0  0  0  0  0  0           0  0  0
    5.9875   -7.9542    0.0000 C   0  0  0  0  0  0           0  0  0
    1.7750   -6.9750    0.0000 C   0  0  1  0  0  0           0  0  0
    0.2292   -4.3042    0.0000 N   0  0  0  0  0  0           0  0  0
    1.6500   -2.3792    0.0000 N   0  0  0  0  0  0           0  0  0
    0.2542   -5.1292    0.0000 C   0  0  1  0  0  0           0  0  0
    2.4417   -2.1542    0.0000 C   0  0  0  0  0  0           0  0  0
    4.6250   -7.3917    0.0000 C   0  0  0  0  0  0           0  0  0
    5.8750   -6.6167    0.0000 C   0  0  0  0  0  0           0  0  0
    4.6542   -3.0542    0.0000 N   0  0  0  0  0  0           0  0  0
    6.6792   -6.8042    0.0000 C   0  0  0  0  0  0           0  0  0
    1.6542   -9.1625    0.0000 C   0  0  0  0  0  0           0  0  0
    5.4042   -6.6292    0.0000 O   0  0  0  0  0  0           0  0  0
   -0.1708   -6.3167    0.0000 O   0  0  0  0  0  0           0  0  0
    2.5375   -7.9792    0.0000 O   0  0  0  0  0  0           0  0  0
    6.0542   -4.5542    0.0000 C   0  0  0  0  0  0           0  0  0
    3.2667   -2.2000    0.0000 C   0  0  0  0  0  0           0  0  0
    0.9667   -2.8500    0.0000 C   0  0  1  0  0  0           0  0  0
    5.6667   -3.5375    0.0000 O   0  0  0  0  0  0           0  0  0
   -0.5583   -5.2917    0.0000 C   0  0  0  0  0  0           0  0  0
    2.3500   -1.3292    0.0000 O   0  0  0  0  0  0           0  0  0
    0.8417   -9.2750    0.0000 O   0  0  0  0  0  0           0  0  0
    1.4625   -7.7417    0.0000 C   0  0  0  0  0  0           0  0  0
    0.4792   -3.5167    0.0000 C   0  0  0  0  0  0           0  0  0
    4.0292   -2.5125    0.0000 C   0  0  0  0  0  0           0  0  0
    1.9667   -8.4000    0.0000 C   0  0  0  0  0  0           0  0  0
    2.1667   -9.8167    0.0000 N   0  0  0  0  0  0           0  0  0
    0.3917   -2.2542    0.0000 C   0  0  0  0  0  0           0  0  0
    6.4542   -3.8292    0.0000 C   0  0  0  0  0  0           0  0  0
   -1.1458   -5.8750    0.0000 C   0  0  0  0  0  0           0  0  0
    5.6375   -5.8292    0.0000 C   0  0  0  0  0  0           0  0  0
    7.2417   -6.2042    0.0000 C   0  0  0  0  0  0           0  0  0
   -0.4083   -2.4625    0.0000 C   0  0  3  0  0  0           0  0  0
    6.0167   -3.1250    0.0000 C   0  0  0  0  0  0           0  0  0
    7.2792   -3.8042    0.0000 C   0  0  0  0  0  0           0  0  0
   -1.9458   -5.6500    0.0000 C   0  0  0  0  0  0           0  0  0
   -0.9375   -6.6667    0.0000 C   0  0  0  0  0  0           0  0  0
   -0.9875   -1.8667    0.0000 C   0  0  0  0  0  0           0  0  0
   -0.6333   -3.2542    0.0000 C   0  0  0  0  0  0           0  0  0
    6.2042   -5.2250    0.0000 C   0  0  0  0  0  0           0  0  0
    7.0042   -5.4167    0.0000 C   0  0  0  0  0  0           0  0  0
    6.4125   -2.3917    0.0000 C   0  0  0  0  0  0           0  0  0
   -2.5375   -6.2292    0.0000 C   0  0  0  0  0  0           0  0  0
   -1.5250   -7.2500    0.0000 C   0  0  0  0  0  0           0  0  0
    7.6667   -3.0792    0.0000 C   0  0  0  0  0  0           0  0  0
    7.2375   -2.3792    0.0000 C   0  0  0  0  0  0           0  0  0
   -2.3333   -7.0292    0.0000 C   0  0  0  0  0  0           0  0  0
  2  4  1  0     0  0
  3 13  1  0     0  0
  4  8  1  0     0  0
  5 18  1  0     0  0
  6  1  1  0     0  0
  7  3  1  0     0  0
  8  1  1  0     0  0
  9  2  1  0     0  0
 10 12  1  0     0  0
 11  9  1  0     0  0
 12  5  2  0     0  0
 13  6  1  0     0  0
 14 16  1  0     0  0
 15 28  1  0     0  0
 16  7  1  0     0  0
 17 27  1  0     0  0
  8 18  1  6     0  0
 19  5  1  0     0  0
 20 11  1  0     0  0
 21 19  2  0     0  0
 22 36  1  0     0  0
 23  4  2  0     0  0
 24  7  2  0     0  0
 25  6  2  0     0  0
  9 26  1  1     0  0
 27 35  1  0     0  0
 28 34  1  0     0  0
 29 11  2  0     0  0
 16 30  1  6     0  0
 31 17  2  0     0  0
 32 22  2  0     0  0
 13 33  1  1     0  0
 34 14  1  0     0  0
 35 20  1  0     0  0
 36 33  1  0     0  0
 37 22  1  0     0  0
 28 38  1  1     0  0
 39 26  1  0     0  0
 40 30  1  0     0  0
 41 19  1  0     0  0
 42 21  1  0     0  0
 43 38  1  0     0  0
 44 39  2  0     0  0
 45 39  1  0     0  0
 46 40  2  0     0  0
 47 40  1  0     0  0
 48 43  1  0     0  0
 49 43  1  0     0  0
 50 41  2  0     0  0
 51 50  1  0     0  0
 52 44  1  0     0  0
 53 46  1  0     0  0
 54 47  2  0     0  0
 55 45  2  0     0  0
 56 55  1  0     0  0
 57 54  1  0     0  0
 10 21  1  0     0  0
 51 42  2  0     0  0
 56 52  2  0     0  0
 17 15  1  0     0  0
 57 53  2  0     0  0
M  END