
          11280715492D 1   1.00000     0.00000     0

 64 70  0     1  0            999 V2000
    2.1478   -4.0719    0.0000 C   0  0  0  0  0  0           0  0  0
    1.4361   -5.3094    0.0000 N   0  0  0  0  0  0           0  0  0
    1.4361   -4.4844    0.0000 C   0  0  1  0  0  0           0  0  0
    0.7203   -4.0719    0.0000 C   0  0  0  0  0  0           0  0  0
    0.0044   -4.4844    0.0000 C   0  0  0  0  0  0           0  0  0
    0.0044   -5.3094    0.0000 C   0  0  0  0  0  0           0  0  0
   -0.7073   -5.7219    0.0000 C   0  0  0  0  0  0           0  0  0
   -1.4291   -5.3094    0.0000 C   0  0  0  0  0  0           0  0  0
   -2.1450   -5.7219    0.0000 O   0  0  0  0  0  0           0  0  0
   -1.4291   -4.4844    0.0000 C   0  0  0  0  0  0           0  0  0
   -0.7073   -4.0719    0.0000 C   0  0  0  0  0  0           0  0  0
    2.1478   -3.2469    0.0000 O   0  0  0  0  0  0           0  0  0
    2.8637   -4.4844    0.0000 N   0  0  3  0  0  0           0  0  0
   -0.7073   -3.2469    0.0000 C   0  0  0  0  0  0           0  0  0
    0.7217   -5.7219    0.0000 C   0  0  0  0  0  0           0  0  0
    2.8598   -5.3104    0.0000 C   0  0  0  0  0  0           0  0  0
    4.2904   -4.4854    0.0000 C   0  0  0  0  0  0           0  0  0
    3.5741   -4.0685    0.0000 C   0  0  3  0  0  0           0  0  0
    4.2891   -5.3126    0.0000 C   0  0  0  0  0  0           0  0  0
    3.5747   -5.7206    0.0000 C   0  0  0  0  0  0           0  0  0
    3.5718   -6.5415    0.0000 C   0  0  0  0  0  0           0  0  0
    4.2826   -6.9554    0.0000 C   0  0  0  0  0  0           0  0  0
    4.9979   -6.5423    0.0000 C   0  0  0  0  0  0           0  0  0
    4.9972   -5.7228    0.0000 C   0  0  0  0  0  0           0  0  0
    3.5731   -3.2435    0.0000 C   0  0  0  0  0  0           0  0  0
    2.8581   -2.8318    0.0000 O   0  0  0  0  0  0           0  0  0
   10.7269   -0.7507    0.0000 C   0  0  0  0  0  0           0  0  0
   11.4258    0.4941    0.0000 N   0  0  0  0  0  0           0  0  0
   11.4343   -0.3308    0.0000 C   0  0  1  0  0  0           0  0  0
   12.1544   -0.7359    0.0000 C   0  0  0  0  0  0           0  0  0
   12.8660   -0.3160    0.0000 C   0  0  0  0  0  0           0  0  0
   12.8574    0.5089    0.0000 C   0  0  0  0  0  0           0  0  0
   13.5648    0.9288    0.0000 C   0  0  0  0  0  0           0  0  0
   14.2849    0.5237    0.0000 C   0  0  0  0  0  0           0  0  0
   14.9965    0.9436    0.0000 O   0  0  0  0  0  0           0  0  0
   14.2934   -0.3012    0.0000 C   0  0  0  0  0  0           0  0  0
   13.5819   -0.7211    0.0000 C   0  0  0  0  0  0           0  0  0
   10.7355   -1.5756    0.0000 O   0  0  0  0  0  0           0  0  0
   10.0068   -0.3456    0.0000 N   0  0  3  0  0  0           0  0  0
   13.5904   -1.5461    0.0000 C   0  0  0  0  0  0           0  0  0
   12.1359    0.9140    0.0000 C   0  0  0  0  0  0           0  0  0
   10.0022    0.4804    0.0000 C   0  0  0  0  0  0           0  0  0
    8.5802   -0.3593    0.0000 C   0  0  0  0  0  0           0  0  0
    9.3008   -0.7688    0.0000 C   0  0  3  0  0  0           0  0  0
    8.5729    0.4679    0.0000 C   0  0  0  0  0  0           0  0  0
    9.2831    0.8832    0.0000 C   0  0  0  0  0  0           0  0  0
    9.2775    1.7041    0.0000 C   0  0  0  0  0  0           0  0  0
    8.5624    2.1106    0.0000 C   0  0  0  0  0  0           0  0  0
    7.8515    1.6902    0.0000 C   0  0  0  0  0  0           0  0  0
    7.8606    0.8707    0.0000 C   0  0  0  0  0  0           0  0  0
    9.3103   -1.5938    0.0000 C   0  0  0  0  0  0           0  0  0
   10.0295   -1.9980    0.0000 O   0  0  0  0  0  0           0  0  0
    5.7250   -2.0000    0.0000 C   0  0  0  0  0  0           0  0  0
    5.7250   -2.8292    0.0000 C   0  0  0  0  0  0           0  0  0
    6.4412   -3.2417    0.0000 N   0  0  0  0  0  0           0  0  0
    7.1532   -2.8292    0.0000 C   0  0  0  0  0  0           0  0  0
    7.1532   -2.0000    0.0000 C   0  0  0  0  0  0           0  0  0
    6.4412   -1.5833    0.0000 N   0  0  0  0  0  0           0  0  0
    7.8712   -3.2469    0.0000 O   0  0  0  0  0  0           0  0  0
    5.0052   -1.5896    0.0000 C   0  0  0  0  0  0           0  0  0
    7.8730   -1.5896    0.0000 C   0  0  0  0  0  0           0  0  0
    5.0070   -3.2469    0.0000 C   0  0  0  0  0  0           0  0  0
    8.5905   -2.0042    0.0000 N   0  0  0  0  0  0           0  0  0
    4.2877   -2.8312    0.0000 N   0  0  0  0  0  0           0  0  0
 13 18  1  0     0  0
 16 20  1  0     0  0
 19 17  1  0     0  0
 17 18  1  0     0  0
  4  5  1  0     0  0
 29 28  1  1     0  0
 27 29  1  0     0  0
 29 30  1  0     0  0
 30 31  1  0     0  0
 31 32  2  0     0  0
 32 33  1  0     0  0
 33 34  2  0     0  0
 34 35  1  0     0  0
 34 36  1  0     0  0
 36 37  2  0     0  0
 31 37  1  0     0  0
 27 38  2  0     0  0
 27 39  1  0     0  0
 37 40  1  0     0  0
 32 41  1  0     0  0
  5  6  2  0     0  0
 39 42  1  0     0  0
 19 20  2  0     0  0
  6  7  1  0     0  0
 20 21  1  0     0  0
 39 44  1  0     0  0
 42 46  1  0     0  0
 45 43  1  0     0  0
 43 44  1  0     0  0
  7  8  2  0     0  0
 21 22  2  0     0  0
 45 46  2  0     0  0
  8  9  1  0     0  0
 46 47  1  0     0  0
 22 23  1  0     0  0
 47 48  2  0     0  0
  8 10  1  0     0  0
 48 49  1  0     0  0
 23 24  2  0     0  0
 49 50  2  0     0  0
 50 45  1  0     0  0
 24 19  1  0     0  0
 44 51  1  0     0  0
 10 11  2  0     0  0
 51 52  2  0     0  0
 53 54  1  0     0  0
 18 25  1  0     0  0
  5 11  1  0     0  0
 25 26  2  0     0  0
  1 12  2  0     0  0
  1 13  1  0     0  0
 11 14  1  0     0  0
 53 58  2  0     0  0
 54 55  2  0     0  0
 55 56  1  0     0  0
 56 57  2  0     0  0
 57 58  1  0     0  0
  6 15  1  0     0  0
 56 59  1  0     0  0
 53 60  1  0     0  0
 13 16  1  0     0  0
 57 61  1  0     0  0
  3  2  1  1     0  0
 54 62  1  0     0  0
  1  3  1  0     0  0
 61 63  1  0     0  0
  3  4  1  0     0  0
 62 64  1  0     0  0
 63 51  1  0     0  0
 64 25  1  0     0  0
M  END