
  SciTegic03091210232D

103 98  0  0  0  0            999 V2000
    4.9155  -22.9392    0.0000 C   0  0  2  0  0  0
   11.1149  -22.7077    0.0000 C   0  0  2  0  0  0
    1.3646  -23.3261    0.0000 C   0  0  2  0  0  0
    7.9091  -22.9167    0.0000 C   0  0  2  0  0  0
    8.6118  -23.3213    0.0000 C   0  0  1  0  0  0
    2.0765  -23.7467    0.0000 C   0  0  2  0  0  0
    5.6434  -23.3505    0.0000 C   0  0  2  0  0  0
   11.8322  -23.1252    0.0000 C   0  0  2  0  0  0
    2.8025  -22.5172    0.0000 C   0  0  2  0  0  0
    9.3378  -22.0918    0.0000 C   0  0  1  0  0  0
    6.3494  -22.9358    0.0000 C   0  0  1  0  0  0
    4.1904  -24.1823    0.0000 S   0  0
   10.3783  -23.9433    0.0000 S   0  0
    6.3839  -24.5223    0.0000 S   0  0
   12.5415  -24.3291    0.0000 S   0  0
    4.9072  -22.1124    0.0000 C   0  0  1  0  0  0
   11.1066  -21.8809    0.0000 C   0  0  1  0  0  0
   -0.0609  -23.3316    0.0000 C   0  0  1  0  0  0
    9.3270  -22.9225    0.0000 O   0  0
    2.7917  -23.3479    0.0000 O   0  0
    4.9876  -19.5924    0.0000 S   0  0
   -1.5132  -20.0405    0.0000 S   0  0
   11.0920  -19.4300    0.0000 S   0  0
    2.1012  -22.0905    0.0000 C   0  0  1  0  0  0
    8.6205  -21.6744    0.0000 C   0  0  1  0  0  0
    1.3816  -22.5060    0.0000 C   0  0  1  0  0  0
    7.9008  -22.0899    0.0000 C   0  0  1  0  0  0
   -0.7614  -23.7433    0.0000 C   0  0  1  0  0  0
   -1.5000  -23.3380    0.0000 C   0  0  2  0  0  0
    7.1095  -23.3784    0.0000 O   0  0
    0.6578  -23.7270    0.0000 O   0  0
    6.3296  -22.1014    0.0000 O   0  0
   -0.0691  -22.5048    0.0000 O   0  0
    5.6269  -21.6969    0.0000 C   0  0  2  0  0  0
   11.8103  -21.4746    0.0000 C   0  0  2  0  0  0
   10.3879  -21.4855    0.0000 O   0  0
    4.1939  -21.7139    0.0000 O   0  0
   12.5373  -22.6968    0.0000 C   0  0  2  0  0  0
   12.5078  -21.8822    0.0000 O   0  0
   -0.7940  -22.0988    0.0000 C   0  0  1  0  0  0
   -1.5021  -22.5218    0.0000 C   0  0  1  0  0  0
    4.2019  -23.3653    0.0000 O   0  0
   10.3846  -23.1294    0.0000 O   0  0
    5.6492  -24.1362    0.0000 O   0  0
   11.8259  -23.9392    0.0000 O   0  0
    2.0848  -24.5735    0.0000 C   0  0
    8.5788  -24.1506    0.0000 C   0  0
    5.6346  -20.8608    0.0000 C   0  0
   11.7968  -20.6508    0.0000 C   0  0
   -0.7961  -21.2826    0.0000 C   0  0
   11.1061  -20.2180    0.0000 O   0  0
    4.9547  -20.4217    0.0000 O   0  0
   -1.5049  -20.8674    0.0000 O   0  0
    4.9068  -24.5861    0.0000 O   0  5
   11.1062  -24.3547    0.0000 O   0  5
    6.3922  -25.3491    0.0000 O   0  5
   12.5497  -25.1560    0.0000 O   0  5
    4.2917  -19.1626    0.0000 O   0  5
   -0.8095  -19.6343    0.0000 O   0  5
   10.3884  -19.0118    0.0000 O   0  5
    9.6746  -24.3496    0.0000 O   0  0
   10.3834  -24.7648    0.0000 O   0  0
    7.0876  -24.1160    0.0000 O   0  0
    7.1012  -24.9398    0.0000 O   0  0
   13.2444  -23.9092    0.0000 O   0  0
   13.2442  -24.7337    0.0000 O   0  0
    4.1840  -24.9963    0.0000 O   0  0
    3.4752  -24.5811    0.0000 O   0  0
   -2.2319  -19.6452    0.0000 O   0  0
   -1.5321  -19.2198    0.0000 O   0  0
    5.0069  -18.7639    0.0000 O   0  0
   11.8055  -19.0039    0.0000 O   0  0
   11.0974  -18.6024    0.0000 O   0  0
    5.7059  -19.1990    0.0000 O   0  0
    2.8096  -24.9795    0.0000 O   0  5
    7.8430  -24.5257    0.0000 O   0  5
    9.2680  -24.6056    0.0000 O   0  0
    1.3904  -24.9958    0.0000 O   0  0
    2.1045  -21.2712    0.0000 O   0  0
    8.6237  -20.8550    0.0000 O   0  0
   -0.7784  -24.5633    0.0000 O   0  0
    0.6696  -22.0854    0.0000 O   0  0
    7.2234  -21.6920    0.0000 O   0  0
   -2.1944  -23.7603    0.0000 O   0  0
   -2.2194  -22.1043    0.0000 O   0  0
   13.2347  -23.1044    0.0000 O   0  0
    3.0841  -25.5532    0.0000 Na  0  3
    9.9655  -18.3532    0.0000 Na  0  3
   -0.5062  -20.1841    0.0000 Na  0  3
    6.6802  -25.9220    0.0000 Na  0  3
    3.8188  -18.4050    0.0000 Na  0  3
   11.4035  -24.9435    0.0000 Na  0  3
    8.1479  -25.1031    0.0000 Na  0  3
    5.1561  -25.2027    0.0000 Na  0  3
   12.8637  -25.6997    0.0000 Na  0  3
   -1.4866  -24.9864    0.0000 C   0  0
    1.3903  -20.8591    0.0000 C   0  0
    7.9255  -20.4337    0.0000 C   0  0
    0.6614  -21.2586    0.0000 C   0  0
   -2.9162  -23.3596    0.0000 C   0  0
    7.2403  -20.8720    0.0000 C   0  0
   -2.2277  -21.2775    0.0000 C   0  0
   13.9636  -22.7049    0.0000 C   0  0
  2 17  1  0
  3 26  1  0
  4 30  1  1
  5  4  1  0
  6 20  1  0
  7  1  1  0
  8  2  1  0
  9 37  1  6
 10 25  1  0
 11  7  1  0
 12 42  1  0
 13 43  1  0
 14 44  1  0
 15 45  1  0
 16  1  1  0
 17 36  1  6
 18 31  1  6
 19  5  1  0
 20  9  1  0
 21 52  1  0
 22 53  1  0
 23 51  1  0
 24  9  1  0
 25 27  1  0
 26 24  1  0
 27  4  1  0
 28 18  1  0
 29 28  1  0
 11 30  1  6
  3 31  1  1
 32 34  1  0
 33 18  1  0
 34 16  1  0
 35 17  1  0
 10 36  1  1
 16 37  1  6
 38 39  1  0
 39 35  1  0
 40 33  1  0
 41 40  1  0
  1 42  1  1
  2 43  1  1
  7 44  1  6
  8 45  1  6
  6 46  1  6
  5 47  1  1
 34 48  1  1
 35 49  1  1
 40 50  1  1
 51 49  1  0
 52 48  1  0
 53 50  1  0
 54 12  1  0
 55 13  1  0
 56 14  1  0
 57 15  1  0
 58 21  1  0
 59 22  1  0
 60 23  1  0
 61 13  2  0
 62 13  2  0
 63 14  2  0
 64 14  2  0
 65 15  2  0
 66 15  2  0
 67 12  2  0
 68 12  2  0
 69 22  2  0
 70 22  2  0
 71 21  2  0
 72 23  2  0
 73 23  2  0
 74 21  2  0
 75 46  1  0
 76 47  1  0
 77 47  2  0
 78 46  2  0
 24 79  1  1
 25 80  1  1
 28 81  1  6
 26 82  1  6
 27 83  1  6
 29 84  1  1
 41 85  1  6
 38 86  1  6
 96 81  1  0
 97 79  1  0
 98 80  1  0
 99 82  1  0
100 84  1  0
101 83  1  0
102 85  1  0
103 86  1  0
 11 32  1  0
  6  3  1  0
 19 10  1  0
 29 41  1  0
  8 38  1  0
M  CHG  8  54  -1  55  -1  56  -1  57  -1  58  -1  59  -1  60  -1  75  -1
M  CHG  8  76  -1  87   1  88   1  89   1  90   1  91   1  92   1  93   1
M  CHG  2  94   1  95   1
M  END