
  CDK    9/16/09,9:59

 19 20  0  0  0  0  0  0  0  0999 V2000
   12.4720  -17.9723    0.0000 C   0  0  0  0  0  0  0  0  0  0  0  0
   13.2976  -17.9689    0.0000 C   0  0  0  0  0  0  0  0  0  0  0  0
   12.0657  -15.8327    0.0000 C   0  0  0  0  0  0  0  0  0  0  0  0
   12.4775  -16.5475    0.0000 N   0  0  0  0  0  0  0  0  0  0  0  0
   12.0627  -17.2567    0.0000 C   0  0  0  0  0  0  0  0  0  0  0  0
   13.7078  -17.2577    0.0000 O   0  0  0  0  0  0  0  0  0  0  0  0
   12.4826  -15.1143    0.0000 C   0  0  0  0  0  0  0  0  0  0  0  0
   12.4839  -13.7811    0.0000 N   0  0  0  0  0  0  0  0  0  0  0  0
   12.0023  -14.4529    0.0000 C   0  0  0  0  0  0  0  0  0  0  0  0
   13.2690  -14.0370    0.0000 C   0  0  0  0  0  0  0  0  0  0  0  0
   13.2670  -14.8608    0.0000 C   0  0  0  0  0  0  0  0  0  0  0  0
   13.9823  -15.2768    0.0000 N   0  0  0  0  0  0  0  0  0  0  0  0
   14.7003  -14.8619    0.0000 C   0  0  0  0  0  0  0  0  0  0  0  0
   14.6984  -14.0349    0.0000 N   0  0  0  0  0  0  0  0  0  0  0  0
   13.9823  -13.6226    0.0000 C   0  0  0  0  0  0  0  0  0  0  0  0
   13.9808  -12.7968    0.0000 O   0  0  0  0  0  0  0  0  0  0  0  0
   13.3033  -16.5502    0.0000 C   0  0  0  0  0  0  0  0  0  0  0  0
   12.0591  -18.6875    0.0000 C   0  0  0  0  0  0  0  0  0  0  0  0
   11.2333  -18.6875    0.0000 O   0  0  0  0  0  0  0  0  0  0  0  0
  9  7  2  0  0  0  0 
  5  1  1  0  0  0  0 
  1  2  1  0  0  0  0 
 10 11  2  0  0  0  0 
  2  6  1  0  0  0  0 
 11 12  1  0  0  0  0 
 12 13  2  0  0  0  0 
  3  7  1  0  0  0  0 
 13 14  1  0  0  0  0 
  7 11  1  0  0  0  0 
 14 15  1  0  0  0  0 
 15 10  1  0  0  0  0 
  3  4  1  0  0  0  0 
 15 16  2  0  0  0  0 
  4  5  1  0  0  0  0 
  4 17  1  0  0  0  0 
 10  8  1  0  0  0  0 
  1 18  1  0  0  0  0 
  8  9  1  0  0  0  0 
 18 19  1  0  0  0  0 
M  END