
  SciTegic01311317052D

 17 18  0  0  0  0            999 V2000
    8.0022   -1.4391    0.0000 N   0  0
    8.0022   -2.2687    0.0000 C   0  0
    8.7166   -2.6812    0.0000 N   0  0
    8.7166   -1.0221    0.0000 C   0  0
    9.4357   -1.4391    0.0000 C   0  0
    9.4322   -2.2687    0.0000 C   0  0
   10.1448   -2.6841    0.0000 N   0  0
   10.8656   -2.2747    0.0000 C   0  0
   10.8692   -1.4452    0.0000 C   0  0
   10.1519   -1.0251    0.0000 N   0  0
    8.7155   -0.1971    0.0000 O   0  0
    7.2878   -2.6812    0.0000 N   0  0
   11.5858   -1.0365    0.0000 C   0  0
   12.2980   -1.4527    0.0000 C   0  0
   11.5901   -0.2115    0.0000 O   0  0
   10.8575   -3.0983    0.0000 C   0  0
   11.5866   -1.8738    0.0000 C   0  0
  5 10  1  0
  6  7  1  0
  7  8  1  0
  8  9  1  0
  9 10  1  0
  5  6  2  0
  4 11  2  0
  2 12  1  0
  1  2  1  0
  9 13  1  0
  1  4  1  0
 13 14  1  0
  2  3  2  0
 13 15  2  0
  3  6  1  0
  8 16  1  0
  5  4  1  0
  8 17  1  0
M  END