
  SciTegic04091415032D

 37 40  0  0  0  0            999 V2000
   17.2988  -24.6879    0.0000 C   0  0
   17.2977  -25.5152    0.0000 C   0  0
   18.0125  -25.9281    0.0000 C   0  0
   18.0107  -24.2751    0.0000 C   0  0
   18.7261  -24.6842    0.0000 C   0  0
   18.7268  -25.5111    0.0000 C   0  0
   19.4422  -25.9221    0.0000 N   0  0
   20.1572  -25.5073    0.0000 C   0  0
   20.1525  -24.6773    0.0000 C   0  0
   19.4366  -24.2701    0.0000 C   0  0
   16.5883  -24.2712    0.0000 C   0  0
   19.4321  -23.4451    0.0000 C   0  0
   20.1445  -23.0287    0.0000 O   0  0
   18.7155  -23.0363    0.0000 O   0  0
   20.8733  -25.9170    0.0000 C   0  0
   20.8765  -26.7420    0.0000 N   0  0
   21.5862  -25.5017    0.0000 O   0  0
   21.5926  -27.1517    0.0000 C   0  0  2  0  0  0
   21.5959  -27.9767    0.0000 C   0  0
   22.3055  -26.7365    0.0000 C   0  0
   23.0216  -27.1462    0.0000 C   0  0
   23.0217  -27.9682    0.0000 C   0  0
   23.7368  -28.3779    0.0000 C   0  0
   24.4507  -27.9625    0.0000 C   0  0
   24.4449  -27.1333    0.0000 C   0  0
   23.7291  -26.7273    0.0000 C   0  0
   15.8778  -24.6779    0.0000 C   0  0
   25.1673  -28.3713    0.0000 O   0  0
   15.1649  -24.2627    0.0000 C   0  0
   15.1730  -23.4405    0.0000 C   0  0
   14.4609  -23.0255    0.0000 C   0  0
   13.7439  -23.4353    0.0000 C   0  0
   13.7434  -24.2646    0.0000 C   0  0
   14.4561  -24.6760    0.0000 C   0  0
   13.0355  -23.0218    0.0000 Cl  0  0
   22.3119  -28.3864    0.0000 O   0  0
   22.3151  -29.2115    0.0000 C   0  0
  1  2  2  0
  2  3  1  0
  3  6  2  0
  5  4  2  0
  4  1  1  0
  5  6  1  0
  6  7  1  0
  7  8  2  0
  8  9  1  0
  9 10  2  0
 10  5  1  0
  1 11  1  0
 10 12  1  0
 12 13  2  0
 12 14  1  0
  8 15  1  0
 15 16  1  0
 15 17  2  0
 16 18  1  0
 18 19  1  1
 18 20  1  0
 20 21  1  0
 21 22  2  0
 22 23  1  0
 23 24  2  0
 24 25  1  0
 25 26  2  0
 26 21  1  0
 27 11  2  0
 24 28  1  0
 27 29  1  0
 29 30  2  0
 30 31  1  0
 31 32  2  0
 32 33  1  0
 33 34  2  0
 34 29  1  0
 32 35  1  0
 19 36  1  0
 36 37  1  0
M  END