
          03140815512D 1   1.00000     0.00000     0

 27 29  0     0  0            999 V2000
    0.7194    0.6125    0.0000 C   0  0  0  0  0  0           0  0  0
    0.7182   -0.2148    0.0000 C   0  0  0  0  0  0           0  0  0
    1.4331   -0.6277    0.0000 C   0  0  0  0  0  0           0  0  0
    2.1495   -0.2144    0.0000 C   0  0  0  0  0  0           0  0  0
    2.1466    0.6162    0.0000 C   0  0  0  0  0  0           0  0  0
    1.4313    1.0253    0.0000 C   0  0  0  0  0  0           0  0  0
    2.8596    1.0314    0.0000 O   0  0  0  0  0  0           0  0  0
    2.8564    1.8564    0.0000 C   0  0  0  0  0  0           0  0  0
    3.5711    2.2667    0.0000 C   0  0  0  0  0  0           0  0  0
    3.5684    3.0909    0.0000 C   0  0  0  0  0  0           0  0  0
    2.8518    3.5016    0.0000 C   0  0  0  0  0  0           0  0  0
    2.1365    3.0819    0.0000 C   0  0  0  0  0  0           0  0  0
    2.1428    2.2591    0.0000 C   0  0  0  0  0  0           0  0  0
    2.8646   -0.6257    0.0000 C   0  0  0  0  0  0           0  0  0
    2.8659   -1.4507    0.0000 N   0  0  0  0  0  0           0  0  0
    3.5810   -1.8621    0.0000 C   0  0  0  0  0  0           0  0  0
    0.0034   -0.6268    0.0000 C   0  0  0  0  0  0           0  0  0
   -0.7167   -1.0333    0.0000 C   0  0  0  0  0  0           0  0  0
   -1.4333   -1.4417    0.0000 C   0  0  0  0  0  0           0  0  0
   -2.1454   -1.0251    0.0000 C   0  0  0  0  0  0           0  0  0
   -2.8623   -1.4335    0.0000 N   0  0  3  0  0  0           0  0  0
   -3.5762   -1.0185    0.0000 C   0  0  0  0  0  0           0  0  0
   -4.2908   -1.4235    0.0000 C   0  0  0  0  0  0           0  0  0
   -4.2998   -2.2488    0.0000 O   0  0  0  0  0  0           0  0  0
   -3.5879   -2.6675    0.0000 C   0  0  0  0  0  0           0  0  0
   -2.8670   -2.2610    0.0000 C   0  0  0  0  0  0           0  0  0
    4.2815    3.5058    0.0000 F   0  0  0  0  0  0           0  0  0
 13  8  1  0     0  0
  1  2  2  0     0  0
  4 14  1  0     0  0
  5  7  1  0     0  0
 14 15  1  0     0  0
  3  4  2  0     0  0
 15 16  1  0     0  0
  7  8  1  0     0  0
  2 17  1  0     0  0
 17 18  3  0     0  0
  8  9  2  0     0  0
 18 19  1  0     0  0
  4  5  1  0     0  0
 19 20  1  0     0  0
  9 10  1  0     0  0
 20 21  1  0     0  0
 21 22  1  0     0  0
  2  3  1  0     0  0
 10 11  2  0     0  0
  5  6  2  0     0  0
 11 12  1  0     0  0
  6  1  1  0     0  0
 21 26  1  0     0  0
 22 23  1  0     0  0
 23 24  1  0     0  0
 24 25  1  0     0  0
 25 26  1  0     0  0
 12 13  2  0     0  0
 10 27  1  0     0  0
M  END