
          11280715092D 1   1.00000     0.00000     0

 36 39  0     1  0            999 V2000
   10.1625   -1.6875    0.0000 S   0  0  3  0  0  0           0  0  0
    6.6542   -0.6667    0.0000 C   0  0  0  0  0  0           0  0  0
    6.6625   -0.0667    0.0000 C   0  0  0  0  0  0           0  0  0
    7.2292   -0.8542    0.0000 S   0  0  0  0  0  0           0  0  0
    7.5792   -0.3750    0.0000 C   0  0  0  0  0  0           0  0  0
    6.0875   -0.8542    0.0000 S   0  0  0  0  0  0           0  0  0
   10.1667   -1.0875    0.0000 N   0  0  0  0  0  0           0  0  0
    7.2292    0.1125    0.0000 C   0  0  0  0  0  0           0  0  0
    9.7417   -0.6667    0.0000 C   0  0  2  0  0  0           0  0  0
   10.1542   -2.2875    0.0000 C   0  0  0  0  0  0           0  0  0
    8.1792   -0.3750    0.0000 C   0  0  0  0  0  0           0  0  0
    6.0917    0.1208    0.0000 C   0  0  0  0  0  0           0  0  0
    5.7375   -0.3667    0.0000 C   0  0  0  0  0  0           0  0  0
   10.2625   -0.3667    0.0000 C   0  0  0  0  0  0           0  0  0
    8.7042   -0.6667    0.0000 N   0  0  0  0  0  0           0  0  0
   10.7625   -1.6875    0.0000 O   0  0  0  0  0  0           0  0  0
    9.5625   -1.6875    0.0000 O   0  0  0  0  0  0           0  0  0
    9.2167   -0.3667    0.0000 C   0  0  0  0  0  0           0  0  0
    3.1417   -2.3042    0.0000 N   0  0  0  0  0  0           0  0  0
    8.3375    0.2083    0.0000 O   0  0  0  0  0  0           0  0  0
   10.2542    0.2333    0.0000 O   0  0  0  0  0  0           0  0  0
    9.6292   -3.1792    0.0000 N   0  0  0  0  0  0           0  0  0
   10.7792   -0.6625    0.0000 O   0  0  0  0  0  0           0  0  0
    9.6292   -2.5792    0.0000 C   0  0  0  0  0  0           0  0  0
    5.1375   -0.3667    0.0000 C   0  0  0  0  0  0           0  0  0
   10.6667   -2.5875    0.0000 C   0  0  0  0  0  0           0  0  0
    4.8375   -0.8875    0.0000 C   0  0  0  0  0  0           0  0  0
    2.9542   -1.7375    0.0000 C   0  0  0  0  0  0           0  0  0
    3.7292   -2.4167    0.0000 C   0  0  0  0  0  0           0  0  0
   10.1417   -3.4792    0.0000 C   0  0  0  0  0  0           0  0  0
    3.9292   -1.4042    0.0000 C   0  0  3  0  0  0           0  0  0
    4.2375   -0.8875    0.0000 C   0  0  0  0  0  0           0  0  0
    3.3417   -1.2875    0.0000 C   0  0  0  0  0  0           0  0  0
    4.1292   -1.9667    0.0000 C   0  0  0  0  0  0           0  0  0
   10.6667   -3.1792    0.0000 C   0  0  0  0  0  0           0  0  0
    9.4417   -1.1792    0.0000 H   0  0  0  0  0  0           0  0  0
  2  4  1  0     0  0
  3  8  1  0     0  0
  4  5  1  0     0  0
  5 11  1  0     0  0
  6  2  1  0     0  0
  7  1  1  0     0  0
  8  5  2  0     0  0
  9  7  1  1     0  0
 10  1  1  0     0  0
 11 15  1  0     0  0
 12  3  1  0     0  0
 13 12  2  0     0  0
 14  9  1  0     0  0
 15 18  1  0     0  0
 16  1  2  0     0  0
 17  1  2  0     0  0
 18  9  1  0     0  0
 19 29  1  0     0  0
 20 11  2  0     0  0
 21 14  2  0     0  0
 22 24  1  0     0  0
 23 14  1  0     0  0
 24 10  2  0     0  0
 25 13  1  0     0  0
 26 10  1  0     0  0
 27 25  1  0     0  0
 28 33  1  0     0  0
 29 34  1  0     0  0
 30 35  1  0     0  0
 31 32  1  0     0  0
 32 27  1  0     0  0
 33 31  1  0     0  0
 34 31  1  0     0  0
 35 26  2  0     0  0
  9 36  1  6     0  0
 22 30  2  0     0  0
  3  2  2  0     0  0
 13  6  1  0     0  0
 28 19  1  0     0  0
M  END