
  SciTegic01161211242D

 40 43  0  0  0  0            999 V2000
   -3.6889   -8.7791    0.0000 C   0  0
   -3.6901   -9.6065    0.0000 C   0  0
   -2.9753  -10.0194    0.0000 C   0  0
   -2.2588   -9.6060    0.0000 C   0  0
   -2.2617   -8.7755    0.0000 C   0  0
   -2.9771   -8.3664    0.0000 C   0  0
   -4.4035   -8.3668    0.0000 C   0  0
   -4.4037   -7.5418    0.0000 F   0  0
   -5.1179   -8.7795    0.0000 F   0  0
   -5.1208   -7.9542    0.0000 F   0  0
   -4.4049  -10.0184    0.0000 F   0  0
   -1.5488   -8.3603    0.0000 C   0  0
   -0.8328   -8.7701    0.0000 N   0  0
   -0.1198   -8.3549    0.0000 C   0  0
   -0.8296   -9.5951    0.0000 C   0  0
    0.5962   -8.7647    0.0000 C   0  0
   -0.1230   -7.5299    0.0000 O   0  0
    0.5993   -9.5897    0.0000 C   0  0
    1.3091   -8.3495    0.0000 C   0  0
    0.5917   -7.9375    0.0000 C   0  0
    2.0251   -8.7593    0.0000 C   0  0
    2.7380   -8.3442    0.0000 N   0  0
    3.4512   -8.7553    0.0000 C   0  0
    4.1620   -8.3436    0.0000 C   0  0
    4.1632   -7.5183    0.0000 C   0  0
    3.4473   -7.1063    0.0000 C   0  0
    2.7303   -7.5196    0.0000 C   0  0
    4.8773   -7.1062    0.0000 N   0  0
    5.5537   -7.5734    0.0000 C   0  0
    6.2104   -7.0741    0.0000 C   0  0
    5.9385   -6.2951    0.0000 C   0  0
    5.1137   -6.3132    0.0000 C   0  0
    5.5725   -8.3982    0.0000 O   0  0
   -0.1137  -10.0026    0.0000 C   0  0
   -0.1109  -10.8268    0.0000 C   0  0
    0.6056  -11.2374    0.0000 C   0  0
    1.3209  -10.8178    0.0000 C   0  0
    1.3146   -9.9949    0.0000 C   0  0
   -0.8240  -11.2416    0.0000 Cl  0  0
    0.6098  -12.0624    0.0000 Cl  0  0
 16 20  1  0
  7 10  1  0
 19 21  1  0
  2  3  1  0
 21 22  1  0
 22 23  1  0
  2 11  1  0
  5  6  2  0
  5 12  1  0
  6  1  1  0
 12 13  1  0
 22 27  1  0
 23 24  1  0
 24 25  1  0
 25 26  1  0
 26 27  1  0
  1  2  2  0
 25 28  1  0
 28 29  1  0
 13 14  1  0
  1  7  1  0
 13 15  1  0
  3  4  2  0
 29 30  1  0
 30 31  1  0
 31 32  1  0
 32 28  1  0
 14 16  1  0
 29 33  2  0
  7  8  1  0
 18 34  2  0
 14 17  2  0
 34 35  1  0
 35 36  2  0
 16 18  1  0
 36 37  1  0
  7  9  1  0
 37 38  2  0
 38 18  1  0
 16 19  1  0
 35 39  1  0
  4  5  1  0
 36 40  1  0
M  END