
  SciTegic01111613442D

 28 32  0  0  0  0            999 V2000
   -1.3897   -2.4706    0.0000 C   0  0
   -1.3897    0.3431    0.0000 C   0  0
   -0.1716   -0.3603    0.0000 C   0  0  1  0  0  0
   -0.1887   -1.7672    0.0000 C   0  0
    1.0294   -2.4706    0.0000 C   0  0
    2.2647   -1.7843    0.0000 C   0  0
    1.0466    0.3431    0.0000 C   0  0  2  0  0  0
    2.2647   -0.3775    0.0000 C   0  0  2  0  0  0
    2.2990    2.4534    0.0000 C   0  0
    1.0466    1.7500    0.0000 C   0  0
    3.5000    1.7328    0.0000 C   0  0  1  0  0  0
    3.5000    0.2917    0.0000 C   0  0  1  0  0  0
    5.9534    0.2574    0.0000 C   0  0
    5.9706    1.6814    0.0000 C   0  0
    4.7524    2.4363    0.0000 C   0  0  2  0  0  0
   -2.6078   -1.7672    0.0000 C   0  0
   -2.6078   -0.3603    0.0000 C   0  0
   -3.8260    0.3431    0.0000 C   0  0
   -5.0613   -0.3603    0.0000 N   0  0
   -5.0613   -1.7672    0.0000 O   0  0
   -0.1716    0.8397    0.0000 C   0  0
    1.0466   -0.6569    0.0000 H   0  0
    3.1239   -0.8892    0.0000 H   0  0
    3.7389   -0.6794    0.0000 H   0  0
    3.5172    2.9327    0.0000 C   0  0
    4.7538    1.2363    0.0000 O   0  0
    6.0665    3.1192    0.0000 C   0  0
    7.1179    3.6977    0.0000 C   0  0
  3  7  1  0
  4  5  1  0
  5  6  1  0
 12 13  1  0
 13 14  1  0
 14 15  1  0
 15 11  1  0
 16 17  2  0
  6  8  1  0
  7  8  1  0
  3  2  1  0
  3  4  1  0
 17 18  1  0
 18 19  2  0
 19 20  1  0
 20 16  1  0
 17  2  1  0
  3 21  1  1
  7 10  1  0
  7 22  1  6
  8 12  1  0
  8 23  1  1
 11  9  1  0
 12 24  1  6
  9 10  1  0
 11 25  1  1
 11 12  1  0
 15 26  1  1
 16  1  1  0
 15 27  1  0
  1  4  2  0
 27 28  3  0
M  END