
  SciTegic12231509382D

 37 44  0  0  1  0            999 V2000
   -1.2957   -2.9292    0.0000 O   0  0
   -1.7548   -4.8519    0.0000 O   0  0
   -3.1098   -2.4750    0.0000 O   0  0
   -0.2068   -5.8713    0.0000 N   0  0
    0.8512   -3.0406    0.0000 N   0  0
    3.3568   -5.1672    0.0000 N   0  0
    4.7474   -5.4963    0.0000 N   0  0
    4.3371   -4.1275    0.0000 N   0  0
   -0.9739   -4.2146    0.0000 C   0  0  1  0  0  0
   -0.9306   -4.8891    0.0000 C   0  0  1  0  0  0
   -1.8039   -4.1753    0.0000 C   0  0
   -0.6216   -3.4464    0.0000 C   0  0  2  0  0  0
   -1.0532   -5.6769    0.0000 C   0  0  1  0  0  0
    0.2256   -3.5784    0.0000 C   0  0
   -2.0133   -3.3821    0.0000 C   0  0
   -2.3118   -4.8598    0.0000 C   0  0
    0.5438   -4.3396    0.0000 C   0  0
   -0.1120   -4.9962    0.0000 C   0  0
   -0.0981   -4.4044    0.0000 C   0  0
   -1.9101   -5.6291    0.0000 C   0  0
    1.3660   -4.2722    0.0000 C   0  0
    0.3771   -5.2485    0.0000 C   0  0
   -2.8315   -3.2516    0.0000 C   0  0
    1.5560   -3.4693    0.0000 C   0  0
   -3.1175   -4.6670    0.0000 C   0  0
   -3.3841   -3.8759    0.0000 C   0  0
    0.0339   -6.6604    0.0000 C   0  0
    1.9663   -4.8381    0.0000 C   0  0
    2.3463   -3.2325    0.0000 C   0  0
   -0.5292   -7.2634    0.0000 C   0  0
    2.7565   -4.6012    0.0000 C   0  0
    2.9465   -3.7984    0.0000 C   0  0
   -0.7154   -8.0671    0.0000 C   0  0
   -1.3183   -7.5040    0.0000 C   0  0
    4.1471   -4.9303    0.0000 C   0  0
   -1.1689   -6.4938    0.0000 H   0  0
   -0.2969   -2.6880    0.0000 H   0  0
 12  1  1  0
  1 15  1  0
 10  2  1  6
  3 23  1  0
  4 13  1  0
  4 22  1  0
  4 27  1  0
  5 14  1  0
  5 24  1  0
  6 31  1  0
  6 35  1  0
  7 35  2  0
 35  8  1  0
  9 10  1  0
  9 11  1  0
  9 12  1  0
  9 19  1  6
 10 13  1  0
 10 18  1  0
 11 15  2  0
 11 16  1  0
 12 14  1  0
 13 20  1  0
 14 17  2  0
 15 23  1  0
 16 20  1  0
 16 25  2  0
 17 18  1  0
 17 21  1  0
 19 22  1  0
 21 24  2  0
 21 28  1  0
 23 26  2  0
 24 29  1  0
 25 26  1  0
 27 30  1  0
 28 31  2  0
 29 32  2  0
 30 33  1  0
 30 34  1  0
 31 32  1  0
 33 34  1  0
 13 36  1  1
 12 37  1  6
M  END