
  CDK    9/16/09,10:7

 28 29  0  0  0  0  0  0  0  0999 V2000
    9.5277  -19.6291    0.0000 C   0  0  0  0  0  0  0  0  0  0  0  0
    9.5266  -20.4565    0.0000 C   0  0  0  0  0  0  0  0  0  0  0  0
   10.2414  -20.8694    0.0000 C   0  0  0  0  0  0  0  0  0  0  0  0
   10.9578  -20.4560    0.0000 C   0  0  0  0  0  0  0  0  0  0  0  0
   10.9550  -19.6255    0.0000 C   0  0  0  0  0  0  0  0  0  0  0  0
   10.2396  -19.2164    0.0000 C   0  0  0  0  0  0  0  0  0  0  0  0
   11.6679  -19.2103    0.0000 C   0  0  0  0  0  0  0  0  0  0  0  0
   12.3839  -19.6201    0.0000 C   0  0  0  0  0  0  0  0  0  0  0  0
   12.3837  -20.4428    0.0000 C   0  0  0  0  0  0  0  0  0  0  0  0
   13.0988  -20.8525    0.0000 C   0  0  0  0  0  0  0  0  0  0  0  0
   13.8127  -20.4372    0.0000 C   0  0  0  0  0  0  0  0  0  0  0  0
   13.8070  -19.6080    0.0000 C   0  0  0  0  0  0  0  0  0  0  0  0
   13.0912  -19.2020    0.0000 N   0  0  0  0  0  0  0  0  0  0  0  0
   14.5206  -19.1896    0.0000 C   0  0  0  0  0  0  0  0  0  0  0  0
   15.2380  -19.5969    0.0000 O   0  0  0  0  0  0  0  0  0  0  0  0
   14.5146  -18.3646    0.0000 O   0  0  0  0  0  0  0  0  0  0  0  0
   11.6730  -20.8674    0.0000 O   0  0  0  0  0  0  0  0  0  0  0  0
   11.6742  -21.6924    0.0000 C   0  0  0  0  0  0  0  0  0  0  0  0
   12.3894  -22.1038    0.0000 C   0  0  0  0  0  0  0  0  0  0  0  0
   12.3860  -22.9261    0.0000 C   0  0  0  0  0  0  0  0  0  0  0  0
   13.1003  -23.3374    0.0000 C   0  0  0  0  0  0  0  0  0  0  0  0
   13.8151  -22.9237    0.0000 C   0  0  0  0  0  0  0  0  0  0  0  0
   13.8111  -22.0944    0.0000 C   0  0  0  0  0  0  0  0  0  0  0  0
   13.0963  -21.6869    0.0000 C   0  0  0  0  0  0  0  0  0  0  0  0
    8.8132  -19.2168    0.0000 Cl  0  0  0  0  0  0  0  0  0  0  0  0
   14.5308  -23.3341    0.0000 Cl  0  0  0  0  0  0  0  0  0  0  0  0
   11.6709  -23.3375    0.0000 F   0  0  0  0  0  0  0  0  0  0  0  0
   16.0208  -19.5792    0.0000 Na  0  0  0  0  0  0  0  0  0  0  0  0
 13  8  1  0  0  0  0 
  6  1  1  0  0  0  0 
  2  3  1  0  0  0  0 
  5  7  1  0  0  0  0 
 14 15  1  0  0  0  0 
 14 16  2  0  0  0  0 
 12 14  1  0  0  0  0 
  4 17  1  0  0  0  0 
  7  8  1  0  0  0  0 
 17 18  1  0  0  0  0 
  3  4  2  0  0  0  0 
 18 19  1  0  0  0  0 
  8  9  2  0  0  0  0 
 19 20  2  0  0  0  0 
  1  2  2  0  0  0  0 
 20 21  1  0  0  0  0 
  9 10  1  0  0  0  0 
 21 22  2  0  0  0  0 
  4  5  1  0  0  0  0 
 22 23  1  0  0  0  0 
 10 11  2  0  0  0  0 
 23 24  2  0  0  0  0 
 24 19  1  0  0  0  0 
  1 25  1  0  0  0  0 
 11 12  1  0  0  0  0 
 22 26  1  0  0  0  0 
  5  6  2  0  0  0  0 
 20 27  1  0  0  0  0 
 12 13  2  0  0  0  0 
M  CHG  1  15  -1
M  CHG  1  28   1
M  END