
  Mrv0541 04051115152D          

 27 29  0  0  0  0            999 V2000
   -0.9244    0.0556    0.0000 N   0  0  0  0  0  0  0  0  0  0  0  0
   -0.7529   -0.7513    0.0000 C   0  0  0  0  0  0  0  0  0  0  0  0
    0.0008   -1.0869    0.0000 C   0  0  0  0  0  0  0  0  0  0  0  0
   -0.0855   -1.9074    0.0000 C   0  0  0  0  0  0  0  0  0  0  0  0
   -0.8924   -2.0789    0.0000 N   0  0  0  0  0  0  0  0  0  0  0  0
   -1.3049   -1.3644    0.0000 N   0  0  0  0  0  0  0  0  0  0  0  0
   -2.1254   -1.2782    0.0000 C   0  0  0  0  0  0  0  0  0  0  0  0
   -2.6104   -1.9456    0.0000 C   0  0  0  0  0  0  0  0  0  0  0  0
   -3.4308   -1.8594    0.0000 C   0  0  0  0  0  0  0  0  0  0  0  0
   -3.7664   -1.1057    0.0000 C   0  0  0  0  0  0  0  0  0  0  0  0
   -4.5869   -1.0195    0.0000 F   0  0  0  0  0  0  0  0  0  0  0  0
   -3.2815   -0.4383    0.0000 C   0  0  0  0  0  0  0  0  0  0  0  0
   -2.4610   -0.5245    0.0000 C   0  0  0  0  0  0  0  0  0  0  0  0
    0.7152   -0.6744    0.0000 C   0  0  0  0  0  0  0  0  0  0  0  0
    1.4297   -1.0869    0.0000 O   0  0  0  0  0  0  0  0  0  0  0  0
    0.7152    0.1506    0.0000 C   0  0  0  0  0  0  0  0  0  0  0  0
    0.0008    0.5631    0.0000 C   0  0  0  0  0  0  0  0  0  0  0  0
    0.0008    1.3881    0.0000 C   0  0  0  0  0  0  0  0  0  0  0  0
    0.7152    1.8006    0.0000 C   0  0  0  0  0  0  0  0  0  0  0  0
    1.4297    1.3881    0.0000 C   0  0  0  0  0  0  0  0  0  0  0  0
    2.1442    1.8006    0.0000 O   0  0  0  0  0  0  0  0  0  0  0  0
    2.8586    1.3881    0.0000 C   0  0  0  0  0  0  0  0  0  0  0  0
    3.5731    1.8006    0.0000 C   0  0  1  0  0  0  0  0  0  0  0  0
    3.5731    2.6256    0.0000 O   0  0  0  0  0  0  0  0  0  0  0  0
    4.2876    1.3881    0.0000 C   0  0  0  0  0  0  0  0  0  0  0  0
    5.0021    1.8006    0.0000 O   0  0  0  0  0  0  0  0  0  0  0  0
    1.4297    0.5631    0.0000 C   0  0  0  0  0  0  0  0  0  0  0  0
  2  1  1  0  0  0  0
  2  3  2  0  0  0  0
  2  6  1  0  0  0  0
  3  4  1  0  0  0  0
 14  3  1  0  0  0  0
  4  5  2  0  0  0  0
  5  6  1  0  0  0  0
  7  6  1  0  0  0  0
  7  8  1  0  0  0  0
 13  7  2  0  0  0  0
  8  9  2  0  0  0  0
 10  9  1  0  0  0  0
 10 11  1  0  0  0  0
 10 12  2  0  0  0  0
 12 13  1  0  0  0  0
 14 15  2  0  0  0  0
 14 16  1  0  0  0  0
 16 17  2  0  0  0  0
 16 27  1  0  0  0  0
 17 18  1  0  0  0  0
 18 19  2  0  0  0  0
 19 20  1  0  0  0  0
 20 21  1  0  0  0  0
 20 27  2  0  0  0  0
 22 21  1  0  0  0  0
 22 23  1  0  0  0  0
 23 24  1  1  0  0  0
 23 25  1  0  0  0  0
 25 26  1  0  0  0  0
M  END