
  SciTegic11201309402D

 20 22  0  0  0  0            999 V2000
   13.0773   -5.0008    0.0000 C   0  0  2  0  0  0
   12.2513   -5.0239    0.0000 C   0  0
   11.8207   -4.3185    0.0000 C   0  0  1  0  0  0
   12.2126   -3.5968    0.0000 C   0  0
   13.0367   -3.5771    0.0000 C   0  0  1  0  0  0
   12.4802   -3.9666    0.0000 C   0  0
   12.4978   -4.6450    0.0000 C   0  0
   13.4691   -4.2790    0.0000 N   0  0
   10.9944   -4.3395    0.0000 O   0  0
   10.6027   -3.6119    0.0000 C   0  0
   11.0369   -2.9088    0.0000 O   0  0
    9.7766   -3.5874    0.0000 C   0  0
    9.3866   -2.8580    0.0000 C   0  0
    8.5614   -2.8331    0.0000 C   0  0
    8.1263   -3.5368    0.0000 C   0  0
    8.5223   -4.2669    0.0000 C   0  0
    9.3464   -4.2882    0.0000 C   0  0
   14.2901   -4.2566    0.0000 C   0  0
   12.0866   -3.8891    0.0000 H   0  0
   12.1113   -4.7424    0.0000 H   0  0
  3  9  1  6
  1  2  1  0
  9 10  1  0
  2  3  1  0
 10 11  2  0
  3  4  1  0
 10 12  1  0
  4  5  1  0
 12 13  2  0
  5  6  1  0
 13 14  1  0
  6  7  1  0
 14 15  2  0
  1  7  1  0
 15 16  1  0
  1  8  1  0
 16 17  2  0
 17 12  1  0
  5  8  1  0
  8 18  1  0
  5 19  1  1
  1 20  1  1
M  END