
          11280715192D 1   1.00000     0.00000     0

 37 39  0     1  0            999 V2000
    3.2500   -5.5917    0.0000 C   0  0  1  0  0  0           0  0  0
    3.9625   -6.0000    0.0000 C   0  0  1  0  0  0           0  0  0
    2.5250   -6.0000    0.0000 C   0  0  2  0  0  0           0  0  0
    3.9625   -6.8167    0.0000 C   0  0  2  0  0  0           0  0  0
    2.5250   -6.8167    0.0000 C   0  0  1  0  0  0           0  0  0
    3.2500   -4.7542    0.0000 C   0  0  0  0  0  0           0  0  0
    3.2500   -7.2375    0.0000 C   0  0  2  0  0  0           0  0  0
    4.6792   -5.5917    0.0000 O   0  0  0  0  0  0           0  0  0
    4.6792   -4.7542    0.0000 C   0  0  2  0  0  0           0  0  0
    4.6792   -7.2375    0.0000 O   0  0  0  0  0  0           0  0  0
    5.3917   -6.8167    0.0000 C   0  0  0  0  0  0           0  0  0
    1.8042   -7.2375    0.0000 C   0  0  3  0  0  0           0  0  0
    3.9625   -4.3417    0.0000 C   0  0  0  0  0  0           0  0  0
    1.8042   -5.5917    0.0000 C   0  0  2  0  0  0           0  0  0
    2.5250   -4.3417    0.0000 O   0  0  0  0  0  0           0  0  0
    8.9667   -7.2792    0.0000 C   0  0  0  0  0  0           0  0  0
    3.2875   -6.3750    0.0000 O   0  0  0  0  0  0           0  0  0
    5.4167   -5.2042    0.0000 C   0  0  0  0  0  0           0  0  0
    5.3917   -5.9792    0.0000 O   0  0  0  0  0  0           0  0  0
    1.0917   -6.8167    0.0000 C   0  0  0  0  0  0           0  0  0
    8.9625   -8.1042    0.0000 O   0  0  0  0  0  0           0  0  0
    1.0917   -6.0000    0.0000 C   0  0  0  0  0  0           0  0  0
    3.9625   -5.2167    0.0000 C   0  0  0  0  0  0           0  0  0
    6.1167   -7.2417    0.0000 N   0  0  0  0  0  0           0  0  0
    3.2500   -8.0750    0.0000 O   0  0  0  0  0  0           0  0  0
    2.5250   -5.1667    0.0000 C   0  0  0  0  0  0           0  0  0
    6.2167   -4.8292    0.0000 C   0  0  0  0  0  0           0  0  0
    8.2625   -6.8542    0.0000 N   0  0  0  0  0  0           0  0  0
    1.8042   -4.7542    0.0000 O   0  0  0  0  0  0           0  0  0
   10.3917   -7.2917    0.0000 Br  0  0  0  0  0  0           0  0  0
    9.6917   -6.8667    0.0000 C   0  0  0  0  0  0           0  0  0
    5.4042   -4.3292    0.0000 C   0  0  0  0  0  0           0  0  0
    1.1875   -7.6917    0.0000 C   0  0  0  0  0  0           0  0  0
    1.8042   -8.0750    0.0000 C   0  0  0  0  0  0           0  0  0
    6.8292   -6.8417    0.0000 C   0  0  0  0  0  0           0  0  0
    7.5417   -7.2625    0.0000 C   0  0  0  0  0  0           0  0  0
    2.5250   -7.6292    0.0000 H   0  0  0  0  0  0           0  0  0
  2  1  1  0     0  0
  3  1  1  0     0  0
  4  2  1  0     0  0
  5  3  1  0     0  0
  6  1  1  0     0  0
  7  5  1  0     0  0
  8  2  1  0     0  0
  9 13  1  0     0  0
  4 10  1  1     0  0
 11 10  1  0     0  0
 12  5  1  0     0  0
 13  6  1  0     0  0
 14  3  1  0     0  0
 15  6  2  0     0  0
 16 28  1  0     0  0
  1 17  1  6     0  0
  9 18  1  6     0  0
 19 11  2  0     0  0
 20 22  1  0     0  0
 21 16  2  0     0  0
 22 14  1  0     0  0
  2 23  1  1     0  0
 24 11  1  0     0  0
  7 25  1  1     0  0
  3 26  1  1     0  0
 27 18  2  0     0  0
 28 36  1  0     0  0
 14 29  1  6     0  0
 30 31  1  0     0  0
 31 16  1  0     0  0
  9 32  1  1     0  0
 12 33  1  0     0  0
 12 34  1  0     0  0
 35 24  1  0     0  0
 36 35  1  0     0  0
  5 37  1  6     0  0
  9  8  1  0     0  0
  7  4  1  0     0  0
 20 12  1  0     0  0
M  END