
          03140815512D 1   1.00000     0.00000     0

 30 32  0     0  0            999 V2000
    0.4319  -23.5458    0.0000 C   0  0  0  0  0  0           0  0  0
    0.4307  -24.3732    0.0000 C   0  0  0  0  0  0           0  0  0
    1.1456  -24.7860    0.0000 C   0  0  0  0  0  0           0  0  0
    1.8620  -24.3727    0.0000 C   0  0  0  0  0  0           0  0  0
    1.8591  -23.5422    0.0000 C   0  0  0  0  0  0           0  0  0
    1.1438  -23.1330    0.0000 C   0  0  0  0  0  0           0  0  0
    2.5721  -23.1270    0.0000 O   0  0  0  0  0  0           0  0  0
    2.5689  -22.3020    0.0000 C   0  0  0  0  0  0           0  0  0
    3.2836  -21.8916    0.0000 C   0  0  0  0  0  0           0  0  0
    3.2809  -21.0674    0.0000 C   0  0  0  0  0  0           0  0  0
    2.5643  -20.6568    0.0000 C   0  0  0  0  0  0           0  0  0
    1.8490  -21.0764    0.0000 C   0  0  0  0  0  0           0  0  0
    1.8553  -21.8992    0.0000 C   0  0  0  0  0  0           0  0  0
    2.5771  -24.7841    0.0000 C   0  0  0  0  0  0           0  0  0
    2.5784  -25.6091    0.0000 N   0  0  0  0  0  0           0  0  0
    3.2935  -26.0204    0.0000 C   0  0  0  0  0  0           0  0  0
   -0.2841  -24.7851    0.0000 C   0  0  0  0  0  0           0  0  0
   -1.0042  -25.1917    0.0000 C   0  0  0  0  0  0           0  0  0
   -1.7208  -25.6000    0.0000 C   0  0  0  0  0  0           0  0  0
   -2.4329  -25.1834    0.0000 C   0  0  0  0  0  0           0  0  0
   -3.1498  -25.5918    0.0000 N   0  0  3  0  0  0           0  0  0
   -3.8637  -25.1769    0.0000 C   0  0  0  0  0  0           0  0  0
   -4.5783  -25.5818    0.0000 C   0  0  0  0  0  0           0  0  0
   -4.5873  -26.4071    0.0000 O   0  0  0  0  0  0           0  0  0
   -3.8754  -26.8259    0.0000 C   0  0  0  0  0  0           0  0  0
   -3.1545  -26.4193    0.0000 C   0  0  0  0  0  0           0  0  0
    2.5601  -19.8318    0.0000 C   0  0  3  0  0  0           0  0  0
    2.5542  -19.0042    0.0000 F   0  0  0  0  0  0           0  0  0
    3.3851  -19.8267    0.0000 F   0  0  0  0  0  0           0  0  0
    1.7351  -19.8394    0.0000 F   0  0  0  0  0  0           0  0  0
  5  7  1  0     0  0
 14 15  1  0     0  0
  3  4  2  0     0  0
 15 16  1  0     0  0
  7  8  1  0     0  0
  2 17  1  0     0  0
 17 18  3  0     0  0
  8  9  2  0     0  0
 18 19  1  0     0  0
  4  5  1  0     0  0
 19 20  1  0     0  0
  9 10  1  0     0  0
 20 21  1  0     0  0
 21 22  1  0     0  0
  2  3  1  0     0  0
 10 11  2  0     0  0
  5  6  2  0     0  0
 11 12  1  0     0  0
  6  1  1  0     0  0
 21 26  1  0     0  0
 22 23  1  0     0  0
 23 24  1  0     0  0
 24 25  1  0     0  0
 25 26  1  0     0  0
 12 13  2  0     0  0
 11 27  1  0     0  0
 13  8  1  0     0  0
 27 28  1  0     0  0
  1  2  2  0     0  0
 27 29  1  0     0  0
  4 14  1  0     0  0
 27 30  1  0     0  0
M  END