
          11280714592D 1   1.00000     0.00000     0

 33 36  0     1  0            999 V2000
    5.6000   -6.9417    0.0000 S   0  0  3  0  0  0           0  0  0
    7.8250   -6.9500    0.0000 S   0  0  3  0  0  0           0  0  0
    4.8167   -5.0417    0.0000 C   0  0  2  0  0  0           0  0  0
    4.8167   -5.6417    0.0000 C   0  0  0  0  0  0           0  0  0
    5.7542   -6.3667    0.0000 N   0  0  3  0  0  0           0  0  0
    5.3417   -4.7417    0.0000 N   0  0  3  0  0  0           0  0  0
    5.3375   -5.9417    0.0000 C   0  0  2  0  0  0           0  0  0
    4.3000   -4.7417    0.0000 C   0  0  0  0  0  0           0  0  0
    6.2000   -6.9417    0.0000 O   0  0  0  0  0  0           0  0  0
    5.0000   -6.9417    0.0000 O   0  0  0  0  0  0           0  0  0
    7.2292   -7.3250    0.0000 O   0  0  0  0  0  0           0  0  0
    8.3542   -6.7292    0.0000 O   0  0  0  0  0  0           0  0  0
    7.3375   -6.4792    0.0000 N   0  0  0  0  0  0           0  0  0
    5.8625   -5.6417    0.0000 C   0  0  0  0  0  0           0  0  0
    8.2000   -7.4500    0.0000 C   0  0  0  0  0  0           0  0  0
    5.8625   -5.0417    0.0000 C   0  0  0  0  0  0           0  0  0
    4.3000   -4.1292    0.0000 C   0  0  0  0  0  0           0  0  0
    5.3417   -4.1292    0.0000 C   0  0  0  0  0  0           0  0  0
    6.7542   -6.6375    0.0000 C   0  0  0  0  0  0           0  0  0
    4.8167   -3.8292    0.0000 C   0  0  0  0  0  0           0  0  0
    6.3375   -6.2125    0.0000 C   0  0  0  0  0  0           0  0  0
    5.4417   -7.5250    0.0000 C   0  0  0  0  0  0           0  0  0
    3.7792   -5.0417    0.0000 C   0  0  0  0  0  0           0  0  0
    7.9542   -8.0250    0.0000 C   0  0  0  0  0  0           0  0  0
    8.8167   -7.3667    0.0000 C   0  0  0  0  0  0           0  0  0
    3.7792   -3.8375    0.0000 C   0  0  0  0  0  0           0  0  0
    3.2625   -4.7417    0.0000 C   0  0  0  0  0  0           0  0  0
    3.2625   -4.1292    0.0000 C   0  0  0  0  0  0           0  0  0
    9.2000   -7.8667    0.0000 C   0  0  0  0  0  0           0  0  0
    8.3292   -8.5250    0.0000 C   0  0  0  0  0  0           0  0  0
    8.9542   -8.4500    0.0000 C   0  0  0  0  0  0           0  0  0
    4.9167   -6.4500    0.0000 H   0  0  0  0  0  0           0  0  0
    4.3000   -5.3375    0.0000 H   0  0  0  0  0  0           0  0  0
  2 13  1  0     0  0
  3  4  1  0     0  0
  4  7  1  0     0  0
  5  1  1  0     0  0
  6 16  1  0     0  0
  7  5  1  0     0  0
  8  3  1  0     0  0
  9  1  2  0     0  0
 10  1  2  0     0  0
 11  2  2  0     0  0
 12  2  2  0     0  0
 13 19  1  0     0  0
 14  7  1  0     0  0
 15  2  1  0     0  0
 16 14  1  0     0  0
 17  8  1  0     0  0
 18  6  1  0     0  0
 19 21  1  0     0  0
 20 18  1  0     0  0
 21  5  1  0     0  0
 22  1  1  0     0  0
 23  8  2  0     0  0
 24 15  2  0     0  0
 25 15  1  0     0  0
 26 17  2  0     0  0
 27 23  1  0     0  0
 28 27  2  0     0  0
 29 25  2  0     0  0
 30 24  1  0     0  0
 31 29  1  0     0  0
  7 32  1  6     0  0
  3 33  1  6     0  0
  3  6  1  0     0  0
 20 17  1  0     0  0
 28 26  1  0     0  0
 31 30  2  0     0  0
M  END