
          11280715152D 1   1.00000     0.00000     0

 31 34  0     0  0            999 V2000
    5.4542   -4.2292    0.0000 C   0  0  3  0  0  0           0  0  0
    4.3042   -5.9417    0.0000 O   0  0  0  0  0  0           0  0  0
    5.2167   -5.1125    0.0000 C   0  0  3  0  0  0           0  0  0
    3.8542   -5.1542    0.0000 C   0  0  3  0  0  0           0  0  0
    4.6625   -4.6917    0.0000 C   0  0  3  0  0  0           0  0  0
    6.0250   -4.4167    0.0000 C   0  0  0  0  0  0           0  0  0
    7.0542   -5.7167    0.0000 C   0  0  0  0  0  0           0  0  0
    6.4792   -4.0250    0.0000 C   0  0  0  0  0  0           0  0  0
    6.0125   -5.7167    0.0000 N   0  0  0  0  0  0           0  0  0
    7.5667   -6.0167    0.0000 N   0  0  0  0  0  0           0  0  0
    8.7125   -4.1167    0.0000 C   0  0  0  0  0  0           0  0  0
    6.5292   -6.0167    0.0000 N   0  0  0  0  0  0           0  0  0
    5.4917   -6.0167    0.0000 C   0  0  0  0  0  0           0  0  0
    7.0417   -4.2250    0.0000 C   0  0  0  0  0  0           0  0  0
    7.5542   -4.6167    0.0000 O   0  0  0  0  0  0           0  0  0
    7.0542   -5.1167    0.0000 O   0  0  0  0  0  0           0  0  0
    3.6917   -4.5667    0.0000 C   0  0  0  0  0  0           0  0  0
    4.2292   -4.2667    0.0000 C   0  0  0  0  0  0           0  0  0
    9.0250   -3.6167    0.0000 O   0  0  0  0  0  0           0  0  0
    8.1167   -4.0542    0.0000 C   0  0  0  0  0  0           0  0  0
    8.0917   -5.7167    0.0000 C   0  0  0  0  0  0           0  0  0
    9.0875   -4.5542    0.0000 O   0  0  0  0  0  0           0  0  0
    6.3625   -3.4417    0.0000 C   0  0  0  0  0  0           0  0  0
    7.4917   -3.8292    0.0000 C   0  0  0  0  0  0           0  0  0
    8.6042   -6.0167    0.0000 C   0  0  0  0  0  0           0  0  0
    8.0875   -5.1250    0.0000 C   0  0  0  0  0  0           0  0  0
    6.8042   -3.0417    0.0000 C   0  0  0  0  0  0           0  0  0
    7.3792   -3.2375    0.0000 C   0  0  0  0  0  0           0  0  0
    8.6042   -4.8167    0.0000 C   0  0  0  0  0  0           0  0  0
    9.1292   -5.7167    0.0000 C   0  0  0  0  0  0           0  0  0
    9.1292   -5.1167    0.0000 C   0  0  0  0  0  0           0  0  0
  2  5  1  0     0  0
  3  1  1  0     0  0
  4  3  1  0     0  0
  5  1  1  0     0  0
  6  1  1  0     0  0
  7 12  1  0     0  0
  8  6  1  0     0  0
  9 13  2  0     0  0
 10  7  1  0     0  0
 11 20  1  0     0  0
 12  9  1  0     0  0
 13  3  1  0     0  0
 14  8  2  0     0  0
 15 14  1  0     0  0
 16  7  2  0     0  0
 17 18  1  0     0  0
 18  5  1  0     0  0
 19 11  2  0     0  0
 20 15  1  0     0  0
 21 10  1  0     0  0
 22 11  1  0     0  0
 23  8  1  0     0  0
 24 14  1  0     0  0
 25 21  2  0     0  0
 26 21  1  0     0  0
 27 23  2  0     0  0
 28 27  1  0     0  0
 29 26  2  0     0  0
 30 25  1  0     0  0
 31 29  1  0     0  0
  4  2  1  0     0  0
  4 17  1  0     0  0
 24 28  2  0     0  0
 30 31  2  0     0  0
M  END