
          11280715142D 1   1.00000     0.00000     0

 21 24  0     0  0            999 V2000
    5.4000   -4.1917    0.0000 C   0  0  0  0  0  0           0  0  0
    4.6792   -3.7792    0.0000 N   0  0  3  0  0  0           0  0  0
    6.0125   -3.6375    0.0000 N   0  0  0  0  0  0           0  0  0
    4.8542   -2.9667    0.0000 N   0  0  0  0  0  0           0  0  0
    5.6792   -2.8792    0.0000 C   0  0  0  0  0  0           0  0  0
    5.4000   -5.0250    0.0000 C   0  0  0  0  0  0           0  0  0
    4.6792   -5.4375    0.0000 N   0  0  0  0  0  0           0  0  0
    3.9667   -4.1917    0.0000 C   0  0  0  0  0  0           0  0  0
    3.9667   -5.0167    0.0000 C   0  0  0  0  0  0           0  0  0
    6.0917   -2.1667    0.0000 C   0  0  0  0  0  0           0  0  0
    6.1125   -5.4375    0.0000 O   0  0  0  0  0  0           0  0  0
    6.9167   -2.1750    0.0000 C   0  0  0  0  0  0           0  0  0
    5.6792   -1.4625    0.0000 C   0  0  0  0  0  0           0  0  0
    6.9167   -0.7417    0.0000 C   0  0  0  0  0  0           0  0  0
    6.0875   -0.7417    0.0000 C   0  0  0  0  0  0           0  0  0
    7.3292   -1.4542    0.0000 C   0  0  0  0  0  0           0  0  0
    3.2542   -3.7792    0.0000 C   0  0  0  0  0  0           0  0  0
    7.3292   -0.0292    0.0000 O   0  0  0  0  0  0           0  0  0
    3.2542   -5.4375    0.0000 C   0  0  0  0  0  0           0  0  0
    2.5417   -4.1917    0.0000 C   0  0  0  0  0  0           0  0  0
    2.5417   -5.0250    0.0000 C   0  0  0  0  0  0           0  0  0
  2  1  1  0     0  0
  3  1  2  0     0  0
  4  2  1  0     0  0
  5  3  1  0     0  0
  6  1  1  0     0  0
  7  6  2  0     0  0
  8  2  1  0     0  0
  9  7  1  0     0  0
 10  5  1  0     0  0
 11  6  1  0     0  0
 12 10  2  0     0  0
 13 10  1  0     0  0
 14 15  1  0     0  0
 15 13  2  0     0  0
 16 12  1  0     0  0
 17  8  2  0     0  0
 18 14  1  0     0  0
 19  9  2  0     0  0
 20 17  1  0     0  0
 21 19  1  0     0  0
  4  5  2  0     0  0
  9  8  1  0     0  0
 21 20  2  0     0  0
 14 16  2  0     0  0
M  END