
          11280715122D 1   1.00000     0.00000     0

 27 29  0     0  0            999 V2000
    5.7000   -0.5292    0.0000 C   0  0  0  0  0  0           0  0  0
    5.7000   -1.3542    0.0000 C   0  0  0  0  0  0           0  0  0
    7.8292   -0.1125    0.0000 C   0  0  3  0  0  0           0  0  0
    7.1167   -0.5292    0.0000 C   0  0  0  0  0  0           0  0  0
    6.4042   -0.1167    0.0000 C   0  0  0  0  0  0           0  0  0
    6.4125   -1.7667    0.0000 C   0  0  0  0  0  0           0  0  0
    7.1250   -1.3542    0.0000 C   0  0  0  0  0  0           0  0  0
    8.2417    0.6083    0.0000 C   0  0  0  0  0  0           0  0  0
    7.4167    0.6000    0.0000 C   0  0  0  0  0  0           0  0  0
    4.9875   -1.7667    0.0000 C   0  0  3  0  0  0           0  0  0
    4.9875   -0.1167    0.0000 C   0  0  3  0  0  0           0  0  0
    9.9875   -2.9917    0.0000 C   0  0  0  0  0  0           0  0  0
    9.9875   -3.8167    0.0000 C   0  0  0  0  0  0           0  0  0
    9.2667   -2.5792    0.0000 C   0  0  0  0  0  0           0  0  0
    8.5542   -1.3500    0.0000 C   0  0  0  0  0  0           0  0  0
    9.2667   -1.7542    0.0000 C   0  0  0  0  0  0           0  0  0
    4.2792   -1.3542    0.0000 C   0  0  0  0  0  0           0  0  0
    4.2792   -0.5292    0.0000 C   0  0  0  0  0  0           0  0  0
   10.7042   -4.2292    0.0000 O   0  0  0  0  0  0           0  0  0
    8.5500   -0.5250    0.0000 C   0  0  0  0  0  0           0  0  0
    9.2792   -4.2375    0.0000 O   0  0  0  0  0  0           0  0  0
    7.8375   -1.7667    0.0000 C   0  0  0  0  0  0           0  0  0
    5.7000    0.3000    0.0000 C   0  0  0  0  0  0           0  0  0
    4.2667   -2.1750    0.0000 C   0  0  0  0  0  0           0  0  0
    5.7000   -2.1792    0.0000 C   0  0  0  0  0  0           0  0  0
    4.2667    0.2958    0.0000 C   0  0  0  0  0  0           0  0  0
    8.5542   -3.0000    0.0000 C   0  0  0  0  0  0           0  0  0
  2  1  2  0     0  0
  3  4  1  0     0  0
  4  5  2  0     0  0
  5  1  1  0     0  0
  6  2  1  0     0  0
  7  4  1  0     0  0
  8  3  1  0     0  0
  9  3  1  0     0  0
 10  2  1  0     0  0
 11  1  1  0     0  0
 12 14  2  0     0  0
 13 12  1  0     0  0
 14 16  1  0     0  0
 15 20  1  0     0  0
 16 15  2  0     0  0
 17 18  1  0     0  0
 18 11  1  0     0  0
 19 13  2  0     0  0
 20  3  1  0     0  0
 21 13  1  0     0  0
 22  7  1  0     0  0
 23 11  1  0     0  0
 24 10  1  0     0  0
 25 10  1  0     0  0
 26 11  1  0     0  0
 27 14  1  0     0  0
 10 17  1  0     0  0
  6  7  2  0     0  0
  9  8  1  0     0  0
M  END