
  SciTegic01161211252D

 16 16  0  0  0  0            999 V2000
   16.2852   -1.1729    0.0000 C   0  0
   15.4579   -1.1648    0.0000 C   0  0
   15.0390   -1.8761    0.0000 C   0  0
   15.4463   -2.5960    0.0000 C   0  0
   16.2768   -2.6001    0.0000 C   0  0
   16.6920   -1.8882    0.0000 C   0  0
   14.2140   -1.8690    0.0000 C   0  0
   13.7954   -2.5799    0.0000 C   0  0
   12.9704   -2.5727    0.0000 C   0  0
   12.5641   -1.8547    0.0000 C   0  0
   11.7391   -1.8476    0.0000 C   0  0
   11.3328   -1.1296    0.0000 C   0  0
   10.5078   -1.1224    0.0000 C   0  0
   17.5169   -1.8926    0.0000 C   0  0
   17.9256   -2.6093    0.0000 O   0  0
   17.9333   -1.1804    0.0000 O   0  0
  7  8  1  0
  8  9  1  0
  4  5  1  0
  9 10  1  0
  2  3  1  0
 10 11  1  0
  5  6  2  0
 11 12  1  0
  6  1  1  0
 12 13  1  0
  1  2  2  0
  6 14  1  0
  3  7  1  0
 14 15  2  0
  3  4  2  0
 14 16  1  0
M  END