
  SciTegic10191216002D

 41 44  0  0  1  0            999 V2000
   -1.4552   -9.5478    0.0000 C   0  0
   -0.7719  -10.0109    0.0000 N   0  0
   -0.1205   -9.5041    0.0000 C   0  0
    0.6774   -9.7139    0.0000 P   0  0
    1.4722   -9.9029    0.0000 O   0  0
    0.4771  -10.5142    0.0000 O   0  0
    0.8857   -8.9156    0.0000 O   0  0
    1.6047   -8.5095    0.0000 C   0  0
    1.8952  -10.6112    0.0000 C   0  0
    2.3146   -8.9314    0.0000 C   0  0
    3.0325   -8.5263    0.0000 C   0  0
    3.0407   -7.7006    0.0000 C   0  0
    2.3253   -7.2814    0.0000 C   0  0
    1.6103   -7.6888    0.0000 C   0  0
    1.4904  -11.3282    0.0000 C   0  0
    1.9127  -12.0360    0.0000 C   0  0
    2.7385  -12.0244    0.0000 C   0  0
    3.1402  -11.2988    0.0000 C   0  0
    2.7157  -10.5939    0.0000 C   0  0
   -0.7449  -10.8355    0.0000 C   0  0
   -1.4454  -11.2712    0.0000 C   0  0  1  0  0  0
   -2.1731  -10.8823    0.0000 N   0  0
   -1.4183  -12.0957    0.0000 C   0  0  1  0  0  0
   -2.1189  -12.5315    0.0000 C   0  0
   -2.0919  -13.3560    0.0000 C   0  0
   -0.0173  -11.2243    0.0000 O   0  0
   -1.2260   -8.7549    0.0000 C   0  0
   -0.4039   -8.7285    0.0000 C   0  0
   -0.0176   -8.0046    0.0000 C   0  0
   -0.4521   -7.3066    0.0000 C   0  0
   -1.2771   -7.3370    0.0000 C   0  0
   -1.6598   -8.0615    0.0000 C   0  0
   -0.6908  -12.4846    0.0000 C   0  0
    3.7586   -7.2939    0.0000 N   0  0
    4.4696   -7.7122    0.0000 C   0  0
    5.1875   -7.3056    0.0000 C   0  0
    4.4629   -8.5372    0.0000 O   0  0
    3.1624  -12.7321    0.0000 N   0  0
    2.7614  -13.4530    0.0000 C   0  0
    1.9364  -13.4662    0.0000 O   0  0
    3.1853  -14.1609    0.0000 C   0  0
 19  9  1  0
  5  9  1  0
  2 20  1  0
  3  4  1  0
 20 21  1  0
  8 10  2  0
 21 22  1  6
 27  1  1  0
 21 23  1  0
 10 11  1  0
 23 24  1  0
  4  5  1  0
 24 25  1  0
 11 12  2  0
 20 26  2  0
  1  2  1  0
 12 13  1  0
 27 28  2  0
  4  6  2  0
 28 29  1  0
 13 14  2  0
 29 30  2  0
 14  8  1  0
 30 31  1  0
  2  3  1  0
 31 32  2  0
 32 27  1  0
  9 15  2  0
 23 33  1  6
  4  7  1  0
 12 34  1  0
 15 16  1  0
 34 35  1  0
  3 28  1  0
 35 36  1  0
 16 17  2  0
 35 37  2  0
  7  8  1  0
 17 38  1  0
 17 18  1  0
 38 39  1  0
 39 40  2  0
 18 19  2  0
 39 41  1  0
M  END