
  CDK    9/16/09,9:56

 31 33  0  0  0  0  0  0  0  0999 V2000
   -0.2071  -22.1880    0.0000 O   0  0  0  0  0  0  0  0  0  0  0  0
   -0.2106  -23.0103    0.0000 C   0  0  0  0  0  0  0  0  0  0  0  0
   -0.9457  -23.3846    0.0000 C   0  0  0  0  0  0  0  0  0  0  0  0
   -1.6788  -23.0081    0.0000 C   0  0  0  0  0  0  0  0  0  0  0  0
   -1.8080  -22.1920    0.0000 O   0  0  0  0  0  0  0  0  0  0  0  0
   -2.2635  -23.5916    0.0000 C   0  0  0  0  0  0  0  0  0  0  0  0
   -3.0794  -23.4593    0.0000 O   0  0  0  0  0  0  0  0  0  0  0  0
   -1.8892  -24.3268    0.0000 C   0  0  0  0  0  0  0  0  0  0  0  0
   -1.0781  -24.2005    0.0000 O   0  0  0  0  0  0  0  0  0  0  0  0
   -2.2657  -25.0599    0.0000 N   0  0  0  0  0  0  0  0  0  0  0  0
   -3.0819  -25.1892    0.0000 C   0  0  0  0  0  0  0  0  0  0  0  0
   -3.2143  -26.0051    0.0000 N   0  0  0  0  0  0  0  0  0  0  0  0
   -2.4761  -26.3786    0.0000 C   0  0  0  0  0  0  0  0  0  0  0  0
   -2.2645  -27.1771    0.0000 C   0  0  0  0  0  0  0  0  0  0  0  0
   -2.8492  -27.7606    0.0000 N   0  0  0  0  0  0  0  0  0  0  0  0
   -1.4682  -27.3920    0.0000 N   0  0  0  0  0  0  0  0  0  0  0  0
   -0.8835  -26.8085    0.0000 C   0  0  0  0  0  0  0  0  0  0  0  0
   -1.0961  -26.0141    0.0000 N   0  0  0  0  0  0  0  0  0  0  0  0
   -1.8925  -25.7991    0.0000 C   0  0  0  0  0  0  0  0  0  0  0  0
    0.4918  -23.4429    0.0000 N   0  0  0  0  0  0  0  0  0  0  0  0
    4.0452  -22.1923    0.0000 C   0  0  0  0  0  0  0  0  0  0  0  0
    4.7595  -21.7798    0.0000 N   0  0  0  0  0  0  0  0  0  0  0  0
    3.3267  -21.7798    0.0000 C   0  0  0  0  0  0  0  0  0  0  0  0
    4.0452  -23.0213    0.0000 O   0  0  0  0  0  0  0  0  0  0  0  0
    2.6082  -22.1923    0.0000 C   0  0  0  0  0  0  0  0  0  0  0  0
    1.8896  -21.7798    0.0000 C   0  0  0  0  0  0  0  0  0  0  0  0
    1.1740  -22.1856    0.0000 C   0  0  0  0  0  0  0  0  0  0  0  0
    1.1950  -23.0138    0.0000 C   0  0  0  0  0  0  0  0  0  0  0  0
    5.4739  -22.1923    0.0000 C   0  0  0  0  0  0  0  0  0  0  0  0
    6.1882  -21.7798    0.0000 C   0  0  0  0  0  0  0  0  0  0  0  0
    6.9026  -22.1923    0.0000 N   0  0  0  0  0  0  0  0  0  0  0  0
 11 12  2  0  0  0  0 
 12 13  1  0  0  0  0 
 13 14  1  0  0  0  0 
 14 15  1  0  0  0  0 
 14 16  2  0  0  0  0 
 16 17  1  0  0  0  0 
 17 18  2  0  0  0  0 
 18 19  1  0  0  0  0 
 13 19  2  0  0  0  0 
 10 19  1  0  0  0  0 
  2 20  1  0  0  0  0 
  1  2  2  0  0  0  0 
  3  2  1  1  0  0  0 
 21 22  1  0  0  0  0 
  3  4  1  0  0  0  0 
 21 23  1  0  0  0  0 
  4  5  1  6  0  0  0 
 21 24  2  0  0  0  0 
  4  6  1  0  0  0  0 
 23 25  1  0  0  0  0 
  6  7  1  6  0  0  0 
 25 26  1  0  0  0  0 
  6  8  1  0  0  0  0 
 26 27  1  0  0  0  0 
  8  9  1  0  0  0  0 
 27 28  1  0  0  0  0 
 28 20  1  0  0  0  0 
  3  9  1  0  0  0  0 
 22 29  1  0  0  0  0 
  8 10  1  1  0  0  0 
 29 30  1  0  0  0  0 
 10 11  1  0  0  0  0 
 30 31  1  0  0  0  0 
M  END