
          11280715312D 1   1.00000     0.00000     0

 44 46  0     0  0            999 V2000
   -0.0083   -2.2542    0.0000 N   0  0  0  0  0  0           0  0  0
   -0.0083   -3.1000    0.0000 C   0  0  0  0  0  0           0  0  0
   -1.4333   -2.2542    0.0000 C   0  0  0  0  0  0           0  0  0
   -0.7125   -1.8667    0.0000 C   0  0  0  0  0  0           0  0  0
   -0.7125   -3.5042    0.0000 N   0  0  0  0  0  0           0  0  0
   -1.4333   -3.1000    0.0000 C   0  0  0  0  0  0           0  0  0
    6.4250   -3.4917    0.0000 C   0  0  0  0  0  0           0  0  0
   -2.1333   -1.8667    0.0000 C   0  0  0  0  0  0           0  0  0
   -2.1333   -3.5042    0.0000 C   0  0  0  0  0  0           0  0  0
   -2.8583   -2.2542    0.0000 C   0  0  0  0  0  0           0  0  0
   -2.8583   -3.1000    0.0000 C   0  0  0  0  0  0           0  0  0
    0.7125   -3.5042    0.0000 N   0  0  3  0  0  0           0  0  0
    7.1375   -3.0750    0.0000 C   0  0  0  0  0  0           0  0  0
    5.7125   -3.0792    0.0000 N   0  0  3  0  0  0           0  0  0
    6.4292   -4.3167    0.0000 O   0  0  0  0  0  0           0  0  0
   -0.7083   -1.0417    0.0000 N   0  0  0  0  0  0           0  0  0
    7.8542   -3.4875    0.0000 C   0  0  0  0  0  0           0  0  0
    7.1292   -2.2542    0.0000 C   0  0  0  0  0  0           0  0  0
    9.9917   -2.2375    0.0000 N   0  0  3  0  0  0           0  0  0
    9.2750   -1.8292    0.0000 C   0  0  0  0  0  0           0  0  0
    8.5625   -2.2417    0.0000 C   0  0  0  0  0  0           0  0  0
   -3.5583   -1.8375    0.0000 O   0  0  0  0  0  0           0  0  0
   -3.5583   -3.5167    0.0000 O   0  0  0  0  0  0           0  0  0
    7.8417   -1.8375    0.0000 C   0  0  0  0  0  0           0  0  0
    8.5667   -3.0667    0.0000 C   0  0  0  0  0  0           0  0  0
   14.9792   -1.8125    0.0000 N   0  0  0  0  0  0           0  0  0
    1.4250   -3.0917    0.0000 C   0  0  0  0  0  0           0  0  0
    5.0000   -3.4917    0.0000 C   0  0  0  0  0  0           0  0  0
    0.7125   -4.3292    0.0000 C   0  0  0  0  0  0           0  0  0
    5.7042   -2.2542    0.0000 C   0  0  0  0  0  0           0  0  0
   10.7042   -1.8250    0.0000 C   0  0  0  0  0  0           0  0  0
    9.9917   -3.0625    0.0000 C   0  0  0  0  0  0           0  0  0
   14.2667   -2.2250    0.0000 C   0  0  0  0  0  0           0  0  0
   15.6917   -2.2167    0.0000 C   0  0  0  0  0  0           0  0  0
   -4.2833   -2.2292    0.0000 C   0  0  0  0  0  0           0  0  0
   -4.2833   -3.1250    0.0000 C   0  0  0  0  0  0           0  0  0
    2.1417   -3.5042    0.0000 C   0  0  0  0  0  0           0  0  0
    4.2792   -3.0875    0.0000 C   0  0  0  0  0  0           0  0  0
   11.4167   -2.2292    0.0000 C   0  0  0  0  0  0           0  0  0
   13.5542   -1.8167    0.0000 C   0  0  0  0  0  0           0  0  0
    3.5667   -3.5000    0.0000 C   0  0  0  0  0  0           0  0  0
   12.1292   -1.8167    0.0000 C   0  0  0  0  0  0           0  0  0
   12.8417   -2.2292    0.0000 C   0  0  0  0  0  0           0  0  0
    2.8542   -3.0875    0.0000 C   0  0  0  0  0  0           0  0  0
  2  1  2  0     0  0
  3  4  2  0     0  0
  4  1  1  0     0  0
  5  2  1  0     0  0
  6  3  1  0     0  0
  7 14  1  0     0  0
  8  3  1  0     0  0
  9  6  1  0     0  0
 10  8  2  0     0  0
 11 10  1  0     0  0
 12  2  1  0     0  0
 13  7  1  0     0  0
 14 28  1  0     0  0
 15  7  2  0     0  0
 16  4  1  0     0  0
 17 13  2  0     0  0
 18 13  1  0     0  0
 19 20  1  0     0  0
 20 21  1  0     0  0
 21 24  1  0     0  0
 22 10  1  0     0  0
 23 11  1  0     0  0
 24 18  2  0     0  0
 25 17  1  0     0  0
 26 33  1  0     0  0
 27 12  1  0     0  0
 28 38  1  0     0  0
 29 12  1  0     0  0
 30 14  1  0     0  0
 31 19  1  0     0  0
 32 19  1  0     0  0
 33 40  1  0     0  0
 34 26  1  0     0  0
 35 22  1  0     0  0
 36 23  1  0     0  0
 37 27  1  0     0  0
 38 41  1  0     0  0
 39 31  1  0     0  0
 40 43  1  0     0  0
 41 44  1  0     0  0
 42 39  1  0     0  0
 43 42  1  0     0  0
 44 37  1  0     0  0
  5  6  2  0     0  0
 11  9  2  0     0  0
 21 25  2  0     0  0
M  END