
          08180812482D 1   1.00000     0.00000     0

 38 41  0     0  0            999 V2000
   -5.2098  -18.0291    0.0000 C   0  0  0  0  0  0           0  0  0
   -5.2109  -18.8565    0.0000 C   0  0  0  0  0  0           0  0  0
   -4.4961  -19.2694    0.0000 C   0  0  0  0  0  0           0  0  0
   -4.4979  -17.6164    0.0000 C   0  0  0  0  0  0           0  0  0
   -3.7777  -18.8536    0.0000 C   0  0  0  0  0  0           0  0  0
   -3.7825  -18.0255    0.0000 C   0  0  0  0  0  0           0  0  0
   -3.1354  -17.4996    0.0000 N   0  0  3  0  0  0           0  0  0
   -3.1215  -19.3681    0.0000 N   0  0  3  0  0  0           0  0  0
   -2.3233  -17.6739    0.0000 C   0  0  0  0  0  0           0  0  0
   -2.3108  -19.1750    0.0000 C   0  0  0  0  0  0           0  0  0
   -1.9585  -18.4203    0.0000 N   0  0  3  0  0  0           0  0  0
   -1.7895  -19.8145    0.0000 O   0  0  0  0  0  0           0  0  0
   -1.8150  -17.0240    0.0000 O   0  0  0  0  0  0           0  0  0
   -3.3279  -16.6974    0.0000 C   0  0  0  0  0  0           0  0  0
   -2.7295  -16.1295    0.0000 C   0  0  0  0  0  0           0  0  0
   -1.9385  -16.3639    0.0000 O   0  0  0  0  0  0           0  0  0
   -1.1335  -18.4129    0.0000 C   0  0  0  0  0  0           0  0  0
   -0.7274  -17.6948    0.0000 C   0  0  0  0  0  0           0  0  0
    0.0976  -17.6874    0.0000 N   0  0  0  0  0  0           0  0  0
   -1.1463  -16.9840    0.0000 O   0  0  0  0  0  0           0  0  0
    0.5037  -16.9693    0.0000 C   0  0  0  0  0  0           0  0  0
    1.3271  -16.9643    0.0000 C   0  0  0  0  0  0           0  0  0
    1.7331  -16.2470    0.0000 C   0  0  0  0  0  0           0  0  0
    1.3142  -15.5352    0.0000 C   0  0  0  0  0  0           0  0  0
    0.4850  -15.5453    0.0000 C   0  0  0  0  0  0           0  0  0
    0.0827  -16.2631    0.0000 C   0  0  0  0  0  0           0  0  0
    2.5581  -16.2400    0.0000 N   0  0  0  0  0  0           0  0  0
   -3.2973  -20.1741    0.0000 C   0  0  3  0  0  0           0  0  0
   -2.9220  -15.3273    0.0000 C   0  0  3  0  0  0           0  0  0
   -3.1417  -14.5250    0.0000 C   0  0  0  0  0  0           0  0  0
   -2.1229  -15.1221    0.0000 C   0  0  0  0  0  0           0  0  0
   -3.7193  -15.5394    0.0000 C   0  0  0  0  0  0           0  0  0
    2.9766  -16.9510    0.0000 C   0  0  0  0  0  0           0  0  0
   -4.0808  -20.4237    0.0000 C   0  0  0  0  0  0           0  0  0
   -4.2578  -21.2258    0.0000 C   0  0  0  0  0  0           0  0  0
   -3.6503  -21.7845    0.0000 C   0  0  0  0  0  0           0  0  0
   -2.8628  -21.5353    0.0000 C   0  0  0  0  0  0           0  0  0
   -2.6828  -20.7275    0.0000 C   0  0  0  0  0  0           0  0  0
  7  9  1  0     0  0
 18 19  1  0     0  0
  4  1  1  0     0  0
 18 20  2  0     0  0
  8 10  1  0     0  0
 19 21  1  0     0  0
 21 22  2  0     0  0
  9 11  1  0     0  0
 22 23  1  0     0  0
 10 11  1  0     0  0
 23 24  2  0     0  0
  2  3  1  0     0  0
 24 25  1  0     0  0
 10 12  2  0     0  0
 25 26  2  0     0  0
 26 21  1  0     0  0
  5  6  1  0     0  0
 23 27  1  0     0  0
  9 13  2  0     0  0
  8 28  1  0     0  0
  3  5  2  0     0  0
 15 29  1  0     0  0
  7 14  1  0     0  0
 29 30  1  0     0  0
  6  7  1  0     0  0
 29 31  1  0     0  0
 14 15  1  0     0  0
 29 32  1  0     0  0
  1  2  2  0     0  0
 27 33  1  0     0  0
 28 34  1  0     0  0
 15 16  2  0     0  0
  5  8  1  0     0  0
 11 17  1  0     0  0
  6  4  2  0     0  0
 17 18  1  0     0  0
 28 38  1  0     0  0
 34 35  1  0     0  0
 35 36  1  0     0  0
 36 37  1  0     0  0
 37 38  1  0     0  0
M  END