
  Mrv0541 04051115152D          

 36 39  0  0  0  0            999 V2000
   -4.9808   -2.1049    0.0000 C   0  0  0  0  0  0  0  0  0  0  0  0
   -4.1738   -1.9334    0.0000 N   0  0  0  0  0  0  0  0  0  0  0  0
   -3.6218   -2.5465    0.0000 C   0  0  0  0  0  0  0  0  0  0  0  0
   -3.9189   -1.1488    0.0000 C   0  0  0  0  0  0  0  0  0  0  0  0
   -4.4709   -0.5357    0.0000 O   0  0  0  0  0  0  0  0  0  0  0  0
   -3.1119   -0.9772    0.0000 C   0  0  0  0  0  0  0  0  0  0  0  0
   -2.5599   -1.5903    0.0000 O   0  0  0  0  0  0  0  0  0  0  0  0
   -2.8570   -0.1926    0.0000 C   0  0  0  0  0  0  0  0  0  0  0  0
   -2.0724    0.0623    0.0000 C   0  0  0  0  0  0  0  0  0  0  0  0
   -1.3579   -0.3502    0.0000 C   0  0  0  0  0  0  0  0  0  0  0  0
   -3.3419    0.4748    0.0000 C   0  0  0  0  0  0  0  0  0  0  0  0
   -2.8570    1.1423    0.0000 N   0  0  0  0  0  0  0  0  0  0  0  0
   -3.1119    1.9269    0.0000 C   0  0  0  0  0  0  0  0  0  0  0  0
   -2.0724    0.8873    0.0000 C   0  0  0  0  0  0  0  0  0  0  0  0
   -1.3579    1.2998    0.0000 C   0  0  0  0  0  0  0  0  0  0  0  0
   -0.6434    0.8873    0.0000 C   0  0  0  0  0  0  0  0  0  0  0  0
    0.0710    1.2998    0.0000 Cl  0  0  0  0  0  0  0  0  0  0  0  0
   -0.6434    0.0623    0.0000 C   0  0  0  0  0  0  0  0  0  0  0  0
    0.0710   -0.3502    0.0000 C   0  0  0  0  0  0  0  0  0  0  0  0
    0.0710   -1.1752    0.0000 O   0  0  0  0  0  0  0  0  0  0  0  0
    0.7855    0.0623    0.0000 N   0  0  0  0  0  0  0  0  0  0  0  0
    1.5000   -0.3502    0.0000 C   0  0  1  0  0  0  0  0  0  0  0  0
    2.2145    0.0623    0.0000 C   0  0  0  0  0  0  0  0  0  0  0  0
    1.5000   -1.1752    0.0000 C   0  0  0  0  0  0  0  0  0  0  0  0
    0.7855    0.8873    0.0000 C   0  0  0  0  0  0  0  0  0  0  0  0
    1.5000    1.2998    0.0000 C   0  0  2  0  0  0  0  0  0  0  0  0
    1.5000    2.1248    0.0000 C   0  0  0  0  0  0  0  0  0  0  0  0
    2.2145    0.8873    0.0000 N   0  0  0  0  0  0  0  0  0  0  0  0
    2.9289    1.2998    0.0000 C   0  0  0  0  0  0  0  0  0  0  0  0
    3.6434    0.8873    0.0000 C   0  0  0  0  0  0  0  0  0  0  0  0
    3.6434    0.0623    0.0000 C   0  0  0  0  0  0  0  0  0  0  0  0
    4.3579   -0.3502    0.0000 C   0  0  0  0  0  0  0  0  0  0  0  0
    5.0723    0.0623    0.0000 C   0  0  0  0  0  0  0  0  0  0  0  0
    5.7868   -0.3502    0.0000 F   0  0  0  0  0  0  0  0  0  0  0  0
    5.0723    0.8873    0.0000 C   0  0  0  0  0  0  0  0  0  0  0  0
    4.3579    1.2998    0.0000 C   0  0  0  0  0  0  0  0  0  0  0  0
  1  2  1  0  0  0  0
  3  2  1  0  0  0  0
  4  2  1  0  0  0  0
  6  4  1  0  0  0  0
  4  5  2  0  0  0  0
  6  7  2  0  0  0  0
  6  8  1  0  0  0  0
  8  9  1  0  0  0  0
 11  8  2  0  0  0  0
 10  9  1  0  0  0  0
  9 14  2  0  0  0  0
 10 18  2  0  0  0  0
 11 12  1  0  0  0  0
 14 12  1  0  0  0  0
 13 12  1  0  0  0  0
 15 14  1  0  0  0  0
 15 16  2  0  0  0  0
 16 18  1  0  0  0  0
 16 17  1  0  0  0  0
 19 18  1  0  0  0  0
 19 20  2  0  0  0  0
 19 21  1  0  0  0  0
 22 21  1  0  0  0  0
 25 21  1  0  0  0  0
 22 24  1  1  0  0  0
 23 22  1  0  0  0  0
 23 28  1  0  0  0  0
 25 26  1  0  0  0  0
 26 27  1  6  0  0  0
 26 28  1  0  0  0  0
 29 28  1  0  0  0  0
 29 30  1  0  0  0  0
 31 30  2  0  0  0  0
 36 30  1  0  0  0  0
 32 31  1  0  0  0  0
 32 33  2  0  0  0  0
 33 34  1  0  0  0  0
 35 33  1  0  0  0  0
 35 36  2  0  0  0  0
M  END