
  SciTegic01311317052D

 32 35  0  0  0  0            999 V2000
   -1.2223  -16.3166    0.0000 C   0  0
   -1.2234  -17.1440    0.0000 C   0  0
   -0.5086  -17.5569    0.0000 C   0  0
   -0.5104  -15.9039    0.0000 C   0  0
    0.2050  -16.3130    0.0000 C   0  0
    0.2084  -17.1415    0.0000 C   0  0
    0.9236  -17.5505    0.0000 C   0  0
    1.6400  -17.1356    0.0000 C   0  0
    1.6366  -16.3071    0.0000 C   0  0
    0.9168  -15.8935    0.0000 C   0  0
    0.9123  -15.0686    0.0000 N   0  0
    1.6245  -14.6521    0.0000 C   0  0
    1.6199  -13.8271    0.0000 O   0  0
    2.3412  -15.0607    0.0000 C   0  0
    3.0534  -14.6443    0.0000 C   0  0
    3.7701  -15.0529    0.0000 C   0  0
    4.4823  -14.6364    0.0000 C   0  0
    5.1990  -15.0450    0.0000 C   0  0
    5.9112  -14.6286    0.0000 N   0  0
    6.6268  -15.0424    0.0000 C   0  0
    7.3368  -14.6295    0.0000 C   0  0
    7.3366  -13.8042    0.0000 N   0  0
    6.6200  -13.3934    0.0000 C   0  0
    5.9037  -13.8080    0.0000 C   0  0
    8.0469  -13.3905    0.0000 C   0  0
    8.7623  -13.8035    0.0000 C   0  0
    9.4756  -13.3905    0.0000 C   0  0
    9.4747  -12.5646    0.0000 C   0  0
    8.7545  -12.1535    0.0000 C   0  0
    8.0441  -12.5689    0.0000 C   0  0
    8.7629  -14.6285    0.0000 N   0  0
    9.4777  -15.0405    0.0000 C   0  0
  5  4  2  0
 15 16  1  0
  4  1  1  0
 16 17  1  0
  5 10  1  0
 17 18  1  0
  6  7  1  0
 18 19  1  0
 19 20  1  0
  7  8  1  0
  8  9  1  0
  9 10  1  0
  5  6  1  0
 10 11  1  0
 19 24  1  0
 20 21  1  0
 21 22  1  0
 22 23  1  0
 23 24  1  0
 11 12  1  0
 25 26  2  0
  2  3  1  0
 26 27  1  0
 12 13  2  0
 27 28  2  0
  3  6  2  0
 28 29  1  0
 12 14  1  0
 29 30  2  0
 30 25  1  0
 22 25  1  0
  1  2  2  0
 26 31  1  0
 14 15  1  0
 31 32  1  0
M  END