
  SciTegic11201309402D

 76 79  0  0  1  0            999 V2000
    6.8292   -4.8292    0.0000 N   0  0
    6.2042   -5.1667    0.0000 C   0  0
    1.8417   -4.8417    0.0000 C   0  0  2  0  0  0
    2.4667   -5.1792    0.0000 C   0  0
    1.2167   -5.1792    0.0000 N   0  0
    0.6000   -4.8417    0.0000 C   0  0
    8.1667   -5.1667    0.0000 C   0  0
   -1.3875   -3.6875    0.0000 C   0  0
    5.5875   -4.8292    0.0000 C   0  0  1  0  0  0
   -0.6458   -4.8542    0.0000 N   0  0
   -1.2625   -5.1917    0.0000 C   0  0
    7.5500   -4.8292    0.0000 C   0  0  1  0  0  0
    4.3375   -4.8375    0.0000 C   0  0
    4.9625   -5.1667    0.0000 N   0  0
    3.0917   -4.8417    0.0000 N   0  0
   -0.4125   -3.3000    0.0000 N   0  0
   -0.0208   -5.1917    0.0000 C   0  0  1  0  0  0
    8.7917   -4.8292    0.0000 N   0  0
    3.7167   -5.1792    0.0000 C   0  0  1  0  0  0
   -0.7458   -3.8292    0.0000 C   0  0
   -3.1458   -4.8542    0.0000 C   0  0
    3.7167   -5.8542    0.0000 C   0  0
   -1.8875   -4.8542    0.0000 C   0  0  2  0  0  0
   10.0500   -4.8167    0.0000 C   0  0
   10.7250   -7.8625    0.0000 C   0  0
   -2.5125   -5.1917    0.0000 N   0  0
   -1.4458   -3.0750    0.0000 C   0  0
   -1.8875   -4.1667    0.0000 C   0  0
   -3.7625   -5.1917    0.0000 C   0  0
    4.3375   -6.1917    0.0000 C   0  0
   10.6667   -5.1417    0.0000 N   0  0
   -0.8458   -2.8292    0.0000 C   0  0
    9.4292   -5.1667    0.0000 C   0  0  2  0  0  0
   -4.3958   -4.8542    0.0000 C   0  0
   11.9250   -5.1250    0.0000 C   0  0
    6.2042   -5.8542    0.0000 O   0  0
   10.7167   -7.1792    0.0000 N   0  0
    2.4667   -5.8625    0.0000 O   0  0
    0.6000   -4.1667    0.0000 O   0  0
    8.1667   -5.8542    0.0000 O   0  0
   -1.2625   -5.8750    0.0000 O   0  0
    4.3292   -4.1625    0.0000 O   0  0
   -3.1458   -4.1667    0.0000 O   0  0
   10.0375   -4.1292    0.0000 O   0  0
    1.8417   -4.1625    0.0000 C   0  0  2  0  0  0
    4.9625   -5.8542    0.0000 O   0  0
   11.9375   -5.8042    0.0000 O   0  0
   11.2917   -4.7917    0.0000 C   0  0
   10.1042   -8.2125    0.0000 N   0  0
   11.3500   -8.1917    0.0000 N   0  0
    6.5917   -4.1792    0.0000 C   0  0
   -4.3958   -5.5292    0.0000 S   0  0
   -0.0208   -5.8667    0.0000 C   0  0  2  0  0  0
    4.3375   -6.8750    0.0000 N   0  0
   12.5417   -4.7792    0.0000 N   0  0
    5.5792   -4.1500    0.0000 C   0  0
    6.2042   -3.8125    0.0000 S   0  0
    7.7667   -4.1792    0.0000 C   0  0
    2.4667   -3.8250    0.0000 O   0  0
    7.1792   -3.7792    0.0000 C   0  0
   -1.9708   -2.7000    0.0000 C   0  0
   10.0792   -6.8542    0.0000 C   0  0
   -5.0208   -5.2000    0.0000 C   0  0
   -4.3958   -4.1792    0.0000 C   0  0
    9.4375   -5.8417    0.0000 C   0  0
   -0.7625   -2.2167    0.0000 C   0  0
   -0.6458   -6.2125    0.0000 C   0  0
    1.2125   -3.8250    0.0000 C   0  0
    0.6000   -6.2042    0.0000 C   0  0
   10.0667   -6.1750    0.0000 C   0  0
   -0.6458   -6.8917    0.0000 C   0  0
   -1.8875   -2.0875    0.0000 C   0  0
   -5.6458   -4.8542    0.0000 C   0  0
   -5.0208   -3.8375    0.0000 C   0  0
   -1.2875   -1.8417    0.0000 C   0  0
   -5.6458   -4.1667    0.0000 C   0  0
  2  1  1  0
  3  4  1  0
  4 15  1  0
  3  5  1  6
  6  5  1  0
 12  7  1  6
  8 28  1  0
  9  2  1  0
 17 10  1  6
 11 10  1  0
 12  1  1  0
 13 14  1  0
  9 14  1  1
 19 15  1  6
 16 20  1  0
 17  6  1  0
 18  7  1  0
 19 13  1  0
 20  8  2  0
 21 26  1  0
 19 22  1  0
 23 11  1  0
 24 33  1  0
 25 37  2  0
 23 26  1  6
 27  8  1  0
 23 28  1  0
 29 21  1  0
 30 22  1  0
 31 24  1  0
 32 27  2  0
 33 18  1  6
 34 29  1  0
 35 48  1  0
 36  2  2  0
 37 62  1  0
 38  4  2  0
 39  6  2  0
 40  7  2  0
 41 11  2  0
 42 13  2  0
 43 21  2  0
 44 24  2  0
  3 45  1  0
 46 30  2  0
 47 35  2  0
 48 31  1  0
 49 25  1  0
 50 25  1  0
 51  1  1  0
 52 34  1  0
 17 53  1  0
 54 30  1  0
 55 35  1  0
  9 56  1  0
 57 56  1  0
 12 58  1  0
 45 59  1  1
 60 51  1  0
 61 27  1  0
 62 70  1  0
 63 34  1  0
 64 34  1  0
 33 65  1  0
 66 32  1  0
 67 53  1  0
 45 68  1  0
 53 69  1  1
 70 65  1  0
 71 67  1  0
 72 61  2  0
 73 63  1  0
 74 64  1  0
 75 72  1  0
 76 74  1  0
 58 60  1  0
 32 16  1  0
 66 75  2  0
 73 76  1  0
M  END