
          11280715012D 1   1.00000     0.00000     0

 29 31  0     1  0            999 V2000
    4.5042   -3.0167    0.0000 C   0  0  0  0  0  0           0  0  0
    4.0167   -3.6875    0.0000 N   0  0  3  0  0  0           0  0  0
    5.2875   -3.2792    0.0000 C   0  0  0  0  0  0           0  0  0
    7.4292   -2.8667    0.0000 C   0  0  0  0  0  0           0  0  0
    5.2875   -4.1000    0.0000 C   0  0  0  0  0  0           0  0  0
    6.0042   -2.8667    0.0000 C   0  0  0  0  0  0           0  0  0
    4.5042   -4.3542    0.0000 C   0  0  0  0  0  0           0  0  0
    6.7167   -3.2792    0.0000 C   0  0  0  0  0  0           0  0  0
    8.1417   -3.2875    0.0000 N   0  0  0  0  0  0           0  0  0
    8.8625   -2.0500    0.0000 C   0  0  0  0  0  0           0  0  0
    9.5750   -3.2917    0.0000 C   0  0  0  0  0  0           0  0  0
    8.8542   -1.2250    0.0000 C   0  0  0  0  0  0           0  0  0
   10.2875   -2.8792    0.0000 C   0  0  0  0  0  0           0  0  0
    8.8542   -2.8750    0.0000 C   0  0  2  0  0  0           0  0  0
    4.2542   -2.2375    0.0000 O   0  0  0  0  0  0           0  0  0
    0.5292   -5.2167    0.0000 N   0  0  0  0  0  0           0  0  0
    3.1917   -3.6792    0.0000 C   0  0  0  0  0  0           0  0  0
    0.5292   -4.3917    0.0000 C   0  0  0  0  0  0           0  0  0
    7.4292   -2.0417    0.0000 O   0  0  0  0  0  0           0  0  0
    6.0042   -4.5167    0.0000 C   0  0  0  0  0  0           0  0  0
    6.7167   -4.1042    0.0000 C   0  0  0  0  0  0           0  0  0
   10.2917   -2.0542    0.0000 O   0  0  0  0  0  0           0  0  0
    1.2417   -3.9875    0.0000 C   0  0  0  0  0  0           0  0  0
   -0.1833   -3.9792    0.0000 N   0  0  0  0  0  0           0  0  0
    2.7792   -4.3917    0.0000 C   0  0  0  0  0  0           0  0  0
   11.0042   -3.2917    0.0000 O   0  0  0  0  0  0           0  0  0
    1.9542   -4.4000    0.0000 C   0  0  0  0  0  0           0  0  0
    1.2417   -5.6375    0.0000 C   0  0  0  0  0  0           0  0  0
    1.9625   -5.2250    0.0000 C   0  0  0  0  0  0           0  0  0
  2  1  1  0     0  0
  3  1  1  0     0  0
  4  8  1  0     0  0
  5  3  2  0     0  0
  6  3  1  0     0  0
  7  2  1  0     0  0
  8  6  2  0     0  0
  9  4  1  0     0  0
 14 10  1  6     0  0
 11 14  1  0     0  0
 12 10  3  0     0  0
 13 11  1  0     0  0
 14  9  1  0     0  0
 15  1  2  0     0  0
 16 28  1  0     0  0
 17  2  1  0     0  0
 18 23  1  0     0  0
 19  4  2  0     0  0
 20  5  1  0     0  0
 21  8  1  0     0  0
 22 13  2  0     0  0
 23 27  2  0     0  0
 24 18  1  0     0  0
 25 17  1  0     0  0
 26 13  1  0     0  0
 27 25  1  0     0  0
 28 29  2  0     0  0
 29 27  1  0     0  0
  7  5  1  0     0  0
 20 21  2  0     0  0
 16 18  2  0     0  0
M  END