
          11280715212D 1   1.00000     0.00000     0

 26 28  0     0  0            999 V2000
    3.6875   -1.9125    0.0000 C   0  0  0  0  0  0           0  0  0
    2.9667   -3.1542    0.0000 C   0  0  0  0  0  0           0  0  0
    3.6875   -2.7417    0.0000 C   0  0  0  0  0  0           0  0  0
    2.2542   -2.7417    0.0000 C   0  0  0  0  0  0           0  0  0
    2.9667   -1.5000    0.0000 C   0  0  0  0  0  0           0  0  0
    4.4000   -1.4917    0.0000 C   0  0  0  0  0  0           0  0  0
    2.2542   -1.9125    0.0000 C   0  0  0  0  0  0           0  0  0
    7.9667   -2.7167    0.0000 N   0  0  3  0  0  0           0  0  0
    2.9667   -3.9792    0.0000 O   0  0  0  0  0  0           0  0  0
    4.4042   -3.1542    0.0000 O   0  0  0  0  0  0           0  0  0
    5.1167   -1.9042    0.0000 O   0  0  0  0  0  0           0  0  0
    4.3917   -0.6667    0.0000 O   0  0  0  0  0  0           0  0  0
    1.5417   -3.1542    0.0000 N   0  0  0  0  0  0           0  0  0
    1.5417   -1.5042    0.0000 I   0  0  0  0  0  0           0  0  0
    7.2542   -3.1292    0.0000 C   0  0  0  0  0  0           0  0  0
    7.9667   -1.8917    0.0000 C   0  0  0  0  0  0           0  0  0
    5.8292   -1.4917    0.0000 C   0  0  0  0  0  0           0  0  0
    6.5417   -1.9000    0.0000 C   0  0  3  0  0  0           0  0  0
    6.5417   -2.7250    0.0000 C   0  0  0  0  0  0           0  0  0
    7.2542   -1.4792    0.0000 C   0  0  0  0  0  0           0  0  0
    8.6875   -3.1292    0.0000 C   0  0  0  0  0  0           0  0  0
    3.6875   -4.3917    0.0000 C   0  0  0  0  0  0           0  0  0
    4.4000   -3.9792    0.0000 C   0  0  0  0  0  0           0  0  0
    8.6875   -3.9542    0.0000 C   0  0  0  0  0  0           0  0  0
    9.4000   -4.3667    0.0000 C   0  0  0  0  0  0           0  0  0
    9.4000   -5.1917    0.0000 C   0  0  0  0  0  0           0  0  0
  2  3  2  0     0  0
  3  1  1  0     0  0
  4  7  2  0     0  0
  5  1  2  0     0  0
  6  1  1  0     0  0
  7  5  1  0     0  0
  8 16  1  0     0  0
  9  2  1  0     0  0
 10  3  1  0     0  0
 11  6  1  0     0  0
 12  6  2  0     0  0
 13  4  1  0     0  0
 14  7  1  0     0  0
 15 19  1  0     0  0
 16 20  1  0     0  0
 17 11  1  0     0  0
 18 17  1  0     0  0
 19 18  1  0     0  0
 20 18  1  0     0  0
 21  8  1  0     0  0
 22 23  1  0     0  0
 23 10  1  0     0  0
 24 21  1  0     0  0
 25 24  1  0     0  0
 26 25  1  0     0  0
  2  4  1  0     0  0
 22  9  1  0     0  0
  8 15  1  0     0  0
M  END