
  SciTegic04091415222D

 22 24  0  0  0  0            999 V2000
   16.8097  -19.3030    0.0000 C   0  0
   17.5150  -18.8986    0.0000 C   0  0
   17.5150  -18.0814    0.0000 C   0  0
   16.8097  -17.6687    0.0000 C   0  0
   16.8097  -20.1202    0.0000 O   0  0
   16.8097  -16.8515    0.0000 O   0  0
   16.1044  -18.8986    0.0000 C   0  0
   16.1070  -18.0832    0.0000 C   0  0
   15.4032  -17.6751    0.0000 C   0  0
   14.6965  -18.0812    0.0000 C   0  0
   14.6979  -18.8997    0.0000 C   0  0
   15.4022  -19.3042    0.0000 N   0  0
   18.2221  -19.3082    0.0000 N   0  0
   18.9304  -18.9006    0.0000 C   0  0
   19.6375  -19.3103    0.0000 C   0  0
   20.3458  -18.9027    0.0000 C   0  0
   21.0532  -19.3140    0.0000 C   0  0
   21.7610  -18.9071    0.0000 C   0  0
   21.7627  -18.0891    0.0000 C   0  0
   21.0506  -17.6796    0.0000 C   0  0
   20.3457  -18.0888    0.0000 C   0  0
   22.4704  -17.6806    0.0000 O   0  0
  8  4  1  0
  7  1  1  0
  1  2  1  0
  2  3  2  0
  3  4  1  0
  1  5  2  0
  4  6  2  0
  7  8  2  0
  8  9  1  0
  9 10  2  0
 10 11  1  0
 11 12  2  0
 12  7  1  0
  2 13  1  0
 13 14  1  0
 14 15  1  0
 15 16  1  0
 16 17  2  0
 17 18  1  0
 18 19  2  0
 19 20  1  0
 20 21  2  0
 21 16  1  0
 19 22  1  0
M  END