
  SciTegic12201609102D

 20 19  0  0  0  0            999 V2000
    3.9000    0.7500    0.0000 C   0  0
    5.2000    0.0000    0.0000 N   0  0
    2.6000    0.0000    0.0000 C   0  0  1  0  0  0
    2.6000   -1.2000    0.0000 N   0  0
    3.9000    1.9500    0.0000 O   0  0
    1.3000    0.7500    0.0000 C   0  0  1  0  0  0
    1.3000    1.9500    0.0000 C   0  0
    0.2606    0.1503    0.0000 O   0  0
    6.5000    0.7500    0.0000 C   0  0  2  0  0  0
    7.7999    0.0000    0.0000 C   0  0
    9.0999    0.7500    0.0000 N   0  0
    7.7999   -1.2000    0.0000 O   0  0
    6.5000    1.9500    0.0000 C   0  0
   10.3999    0.0000    0.0000 C   0  0  2  0  0  0
   11.6999    0.7500    0.0000 C   0  0
   11.6999    1.9500    0.0000 O   0  0
   12.7393    0.1503    0.0000 O   0  0
   10.4030   -1.5008    0.0000 C   0  0
   11.4431   -2.0994    0.0000 C   0  0
    9.3648   -2.1026    0.0000 C   0  0
  1  2  1  0
  1  3  1  0
  3  4  1  1
  1  5  2  0
  3  6  1  0
  6  7  1  0
  6  8  1  6
  2  9  1  0
  9 10  1  0
 10 11  1  0
 10 12  2  0
  9 13  1  1
 11 14  1  0
 14 15  1  0
 15 16  1  0
 15 17  2  0
 14 18  1  6
 18 19  1  0
 18 20  1  0
M  END