
  SciTegic12131016252D

 20 22  0  0  0  0            999 V2000
   -1.8024  -13.0198    0.0000 C   0  0
   -1.8162  -12.1949    0.0000 C   0  0
   -1.0364  -11.9251    0.0000 C   0  0
   -0.5386  -12.5862    0.0000 S   0  0
   -1.0142  -13.2593    0.0000 C   0  0
   -2.5320  -11.7857    0.0000 C   0  0
   -3.2448  -12.2012    0.0000 C   0  0
   -2.5355  -10.9608    0.0000 O   0  0
   -3.2367  -13.0268    0.0000 C   0  0
   -3.9486  -13.4422    0.0000 C   0  0
   -4.6658  -13.0327    0.0000 C   0  0
   -4.6666  -12.2034    0.0000 C   0  0
   -3.9541  -11.7917    0.0000 C   0  0
   -0.7957  -11.1360    0.0000 N   0  0
   -0.6206  -13.9820    0.0000 C   0  0
   -1.0541  -14.6853    0.0000 C   0  0
   -0.6618  -15.4102    0.0000 C   0  0
    0.1638  -15.4331    0.0000 C   0  0
    0.5955  -14.7250    0.0000 C   0  0
    0.2008  -14.0030    0.0000 C   0  0
  9 10  1  0
  5  1  2  0
 10 11  2  0
  1  2  1  0
 11 12  1  0
  2  6  1  0
 12 13  2  0
 13  7  1  0
  3 14  1  0
  6  7  1  0
  2  3  2  0
 15 16  2  0
  6  8  2  0
 16 17  1  0
  3  4  1  0
 17 18  2  0
  7  9  2  0
 18 19  1  0
  4  5  1  0
 19 20  2  0
 20 15  1  0
  5 15  1  0
M  END