
          05080814032D 1   1.00000     0.00000     0

 30 33  0     1  0            999 V2000
    5.5396   -1.2970    0.0000 C   0  0  0  0  0  0           0  0  0
    5.5383   -2.1246    0.0000 C   0  0  0  0  0  0           0  0  0
    6.2513   -2.5375    0.0000 C   0  0  0  0  0  0           0  0  0
    6.2493   -0.8843    0.0000 C   0  0  0  0  0  0           0  0  0
    6.9674   -1.2930    0.0000 C   0  0  0  0  0  0           0  0  0
    6.9711   -2.1266    0.0000 C   0  0  0  0  0  0           0  0  0
    7.6909   -2.5380    0.0000 C   0  0  0  0  0  0           0  0  0
    8.4116   -2.1202    0.0000 N   0  0  3  0  0  0           0  0  0
    8.4079   -1.2866    0.0000 C   0  0  0  0  0  0           0  0  0
    7.6834   -0.8707    0.0000 C   0  0  1  0  0  0           0  0  0
    9.1273   -2.5305    0.0000 C   0  0  0  0  0  0           0  0  0
    7.6787   -0.0458    0.0000 C   0  0  0  0  0  0           0  0  0
    8.3903    0.3656    0.0000 C   0  0  0  0  0  0           0  0  0
    8.3859    1.1898    0.0000 C   0  0  0  0  0  0           0  0  0
    7.6685    1.5989    0.0000 C   0  0  0  0  0  0           0  0  0
    6.9540    1.1779    0.0000 C   0  0  0  0  0  0           0  0  0
    6.9621    0.3551    0.0000 C   0  0  0  0  0  0           0  0  0
    4.8233   -2.5361    0.0000 O   0  0  0  0  0  0           0  0  0
    4.1094   -2.1225    0.0000 C   0  0  0  0  0  0           0  0  0
    4.1106   -1.2975    0.0000 C   0  0  0  0  0  0           0  0  0
    3.3967   -0.8840    0.0000 C   0  0  0  0  0  0           0  0  0
    3.3979   -0.0591    0.0000 N   0  0  3  0  0  0           0  0  0
    4.1138    0.3539    0.0000 C   0  0  2  0  0  0           0  0  0
    4.1170    1.1753    0.0000 C   0  0  0  0  0  0           0  0  0
    3.4050    1.5927    0.0000 O   0  0  0  0  0  0           0  0  0
    2.6881    1.1825    0.0000 C   0  0  0  0  0  0           0  0  0
    2.6832    0.3549    0.0000 C   0  0  0  0  0  0           0  0  0
    4.8273   -0.0601    0.0000 C   0  0  0  0  0  0           0  0  0
    7.6625    2.4239    0.0000 O   0  0  0  0  0  0           0  0  0
    8.3740    2.8416    0.0000 C   0  0  0  0  0  0           0  0  0
  1  2  2  0     0  0
 14 15  2  0     0  0
  5  4  2  0     0  0
 15 16  1  0     0  0
  4  1  1  0     0  0
 16 17  2  0     0  0
 17 12  1  0     0  0
  5 10  1  0     0  0
  2 18  1  0     0  0
  6  7  1  0     0  0
 18 19  1  0     0  0
  7  8  1  0     0  0
 19 20  1  0     0  0
  8  9  1  0     0  0
 20 21  1  0     0  0
  9 10  1  0     0  0
 21 22  1  0     0  0
 22 23  1  0     0  0
  5  6  1  0     0  0
  8 11  1  0     0  0
 10 12  1  6     0  0
  2  3  1  0     0  0
 22 27  1  0     0  0
 23 24  1  0     0  0
 24 25  1  0     0  0
 25 26  1  0     0  0
 26 27  1  0     0  0
 12 13  2  0     0  0
 23 28  1  6     0  0
  3  6  2  0     0  0
 15 29  1  0     0  0
 13 14  1  0     0  0
 29 30  1  0     0  0
M  END