
          05080814042D 1   1.00000     0.00000     0

 37 40  0     1  0            999 V2000
    7.9310  -24.3072    0.0000 C   0  0  0  0  0  0           0  0  0
    7.2202  -24.7220    0.0000 C   0  0  0  0  0  0           0  0  0
    7.2272  -25.5484    0.0000 C   0  0  0  0  0  0           0  0  0
    7.9411  -25.9518    0.0000 C   0  0  0  0  0  0           0  0  0
    8.6442  -24.7144    0.0000 C   0  0  0  0  0  0           0  0  0
    8.6503  -25.5420    0.0000 C   0  0  0  0  0  0           0  0  0
    9.3661  -25.9484    0.0000 C   0  0  0  0  0  0           0  0  0
    9.3540  -24.2930    0.0000 C   0  0  0  0  0  0           0  0  0
   10.0745  -24.7039    0.0000 C   0  0  2  0  0  0           0  0  0
   10.0790  -25.5335    0.0000 C   0  0  2  0  0  0           0  0  0
   10.7958  -25.9421    0.0000 N   0  0  3  0  0  0           0  0  0
   11.5126  -25.5257    0.0000 C   0  0  0  0  0  0           0  0  0
   11.5081  -24.6961    0.0000 C   0  0  1  0  0  0           0  0  0
   10.7867  -24.2829    0.0000 C   0  0  0  0  0  0           0  0  0
   10.0667  -23.8750    0.0000 H   0  0  0  0  0  0           0  0  0
   10.0708  -26.3583    0.0000 H   0  0  0  0  0  0           0  0  0
   12.2207  -24.2804    0.0000 C   0  0  0  0  0  0           0  0  0
   12.9370  -24.6897    0.0000 N   0  0  3  0  0  0           0  0  0
   12.2170  -23.4554    0.0000 O   0  0  0  0  0  0           0  0  0
   12.9347  -25.5178    0.0000 C   0  0  0  0  0  0           0  0  0
   13.6469  -25.9271    0.0000 C   0  0  0  0  0  0           0  0  0
   14.3620  -25.5149    0.0000 N   0  0  3  0  0  0           0  0  0
   14.3603  -24.6889    0.0000 C   0  0  0  0  0  0           0  0  0
   13.6435  -24.2751    0.0000 C   0  0  0  0  0  0           0  0  0
    7.9270  -23.4822    0.0000 O   0  0  0  0  0  0           0  0  0
    7.2105  -23.0731    0.0000 C   0  0  0  0  0  0           0  0  0
   10.7992  -26.7671    0.0000 C   0  0  0  0  0  0           0  0  0
   15.0767  -25.9269    0.0000 C   0  0  0  0  0  0           0  0  0
   15.0728  -26.7511    0.0000 C   0  0  0  0  0  0           0  0  0
   15.7867  -27.1630    0.0000 C   0  0  0  0  0  0           0  0  0
   16.5019  -26.7500    0.0000 C   0  0  0  0  0  0           0  0  0
   16.4987  -25.9207    0.0000 C   0  0  0  0  0  0           0  0  0
   15.7842  -25.5125    0.0000 C   0  0  0  0  0  0           0  0  0
   17.2172  -27.1610    0.0000 C   0  0  0  0  0  0           0  0  0
   17.2188  -27.9860    0.0000 O   0  0  0  0  0  0           0  0  0
   17.9308  -26.7471    0.0000 O   0  5  0  0  0  0           0  0  0
   16.9375  -25.0625    0.0000 Na  0  3  0  0  0  0           0  0  0
 13 17  1  1     0  0
  7 10  1  0     0  0
 17 18  1  0     0  0
  9  8  1  0     0  0
 17 19  2  0     0  0
 18 20  1  0     0  0
  9 10  1  0     0  0
  3  4  2  0     0  0
  4  6  1  0     0  0
  5  6  2  0     0  0
  1  2  2  0     0  0
 18 24  1  0     0  0
 20 21  1  0     0  0
 21 22  1  0     0  0
 22 23  1  0     0  0
 23 24  1  0     0  0
  5  1  1  0     0  0
  1 25  1  0     0  0
  2  3  1  0     0  0
 25 26  1  0     0  0
  9 14  1  0     0  0
 11 27  1  0     0  0
 10 11  1  0     0  0
 22 28  1  0     0  0
 11 12  1  0     0  0
 28 29  2  0     0  0
 12 13  1  0     0  0
 29 30  1  0     0  0
 13 14  1  0     0  0
 30 31  2  0     0  0
 31 32  1  0     0  0
  9 15  1  6     0  0
 32 33  2  0     0  0
 33 28  1  0     0  0
  5  8  1  0     0  0
 31 34  1  0     0  0
 10 16  1  1     0  0
 34 35  2  0     0  0
  6  7  1  0     0  0
 34 36  1  0     0  0
M  CHG  2  36  -1  37   1
M  END