
          11280715222D 1   1.00000     0.00000     0

 24 26  0     0  0            999 V2000
    6.6250   -2.9542    0.0000 C   0  0  0  0  0  0           0  0  0
    5.2292   -2.9375    0.0000 C   0  0  0  0  0  0           0  0  0
    5.9250   -2.5417    0.0000 S   0  0  0  0  0  0           0  0  0
    2.4542   -2.9500    0.0000 C   0  0  0  0  0  0           0  0  0
    2.4542   -3.7542    0.0000 C   0  0  0  0  0  0           0  0  0
    5.2292   -3.7417    0.0000 N   0  0  0  0  0  0           0  0  0
    6.6167   -3.7542    0.0000 C   0  0  0  0  0  0           0  0  0
    3.8417   -2.9500    0.0000 C   0  0  0  0  0  0           0  0  0
    3.1417   -2.5500    0.0000 C   0  0  0  0  0  0           0  0  0
    7.3167   -2.5417    0.0000 C   0  0  0  0  0  0           0  0  0
    3.1417   -4.1625    0.0000 C   0  0  0  0  0  0           0  0  0
    4.5417   -2.5292    0.0000 S   0  0  0  0  0  0           0  0  0
    1.7500   -4.1625    0.0000 C   0  0  3  0  0  0           0  0  0
    1.7500   -2.5417    0.0000 C   0  0  3  0  0  0           0  0  0
    3.8542   -3.7542    0.0000 C   0  0  0  0  0  0           0  0  0
    7.3042   -1.7375    0.0000 O   0  0  0  0  0  0           0  0  0
    1.0542   -2.9500    0.0000 C   0  0  0  0  0  0           0  0  0
    1.0542   -3.7542    0.0000 C   0  0  0  0  0  0           0  0  0
    8.0250   -2.9375    0.0000 O   0  0  0  0  0  0           0  0  0
    1.0542   -2.1417    0.0000 C   0  0  0  0  0  0           0  0  0
    2.4417   -4.5667    0.0000 C   0  0  0  0  0  0           0  0  0
    1.0542   -4.5667    0.0000 C   0  0  0  0  0  0           0  0  0
    2.3167   -1.9750    0.0000 C   0  0  0  0  0  0           0  0  0
    4.5417   -4.1625    0.0000 C   0  0  0  0  0  0           0  0  0
  2  3  1  0     0  0
  3  1  1  0     0  0
  4  9  1  0     0  0
  5 11  1  0     0  0
  6  7  1  0     0  0
  7  1  2  0     0  0
  8 12  1  0     0  0
  9  8  2  0     0  0
 10  1  1  0     0  0
 11 15  2  0     0  0
 12  2  1  0     0  0
 13  5  1  0     0  0
 14  4  1  0     0  0
 15  8  1  0     0  0
 16 10  2  0     0  0
 17 14  1  0     0  0
 18 13  1  0     0  0
 19 10  1  0     0  0
 20 14  1  0     0  0
 21 13  1  0     0  0
 22 13  1  0     0  0
 23 14  1  0     0  0
 24 15  1  0     0  0
  2  6  2  0     0  0
  4  5  2  0     0  0
 17 18  1  0     0  0
M  END