
  SciTegic05221516342D

 33 36  0  0  0  0            999 V2000
   20.0061   -6.2994    0.0000 C   0  0
   20.6748   -5.8297    0.0000 N   0  0
   20.4366   -5.0479    0.0000 C   0  0
   19.6170   -5.0344    0.0000 C   0  0
   19.3550   -5.8075    0.0000 C   0  0
   15.8224   -6.2238    0.0000 C   0  0
   15.8212   -7.0434    0.0000 C   0  0
   16.5293   -7.4523    0.0000 C   0  0
   17.2389   -7.0429    0.0000 C   0  0
   17.2361   -6.2202    0.0000 C   0  0
   16.5275   -5.8150    0.0000 C   0  0
   17.9423   -5.8090    0.0000 N   0  0
   15.1132   -7.4514    0.0000 O   0  0
   18.6515   -6.2149    0.0000 C   0  0
   18.6546   -7.0321    0.0000 O   0  0
   21.4476   -6.0956    0.0000 C   0  0
   22.0642   -5.5593    0.0000 C   0  0
   22.8369   -5.8251    0.0000 N   0  0
   21.9080   -4.7571    0.0000 O   0  0
   22.9908   -6.6315    0.0000 C   0  0
   23.7595   -6.8980    0.0000 C   0  0
   24.3792   -6.3647    0.0000 N   0  0
   24.2248   -5.5612    0.0000 C   0  0
   23.4507   -5.2911    0.0000 C   0  0
   25.1509   -6.6335    0.0000 C   0  0
   25.3017   -7.4367    0.0000 C   0  0
   26.0726   -7.7055    0.0000 C   0  0
   26.6922   -7.1713    0.0000 C   0  0
   26.5357   -6.3650    0.0000 C   0  0
   25.7650   -6.0998    0.0000 C   0  0
   27.4643   -7.4391    0.0000 C   0  0
   27.6185   -8.2416    0.0000 C   0  0
   28.0822   -6.9043    0.0000 O   0  0
  1  2  1  0
  2  3  1  0
  3  4  1  0
  4  5  1  0
  5  1  1  0
  6  7  2  0
  7  8  1  0
  8  9  2  0
  9 10  1  0
 10 11  2  0
 11  6  1  0
 10 12  1  0
  7 13  1  0
 12 14  1  0
 14  5  1  0
 14 15  2  0
  2 16  1  0
 16 17  1  0
 17 18  1  0
 17 19  2  0
 18 20  1  0
 18 24  1  0
 20 21  1  0
 21 22  1  0
 22 23  1  0
 23 24  1  0
 22 25  1  0
 25 26  2  0
 26 27  1  0
 27 28  2  0
 28 29  1  0
 29 30  2  0
 30 25  1  0
 28 31  1  0
 31 32  1  0
 31 33  2  0
M  END