
  SciTegic06051315212D

 57 59  0  0  0  0            999 V2000
    4.4666  -18.2204    0.0000 C   0  0
    5.1810  -17.8079    0.0000 C   0  0
    4.4666  -19.0454    0.0000 C   0  0
    5.8955  -18.2204    0.0000 C   0  0
    5.1810  -16.9830    0.0000 C   0  0
    5.8955  -19.0454    0.0000 O   0  0
    6.6099  -17.8079    0.0000 O   0  0
    7.2547  -18.3220    0.0000 C   0  0  1  0  0  0
    7.2173  -19.1461    0.0000 C   0  0
    8.0469  -18.1009    0.0000 C   0  0  2  0  0  0
    6.5288  -19.6006    0.0000 C   0  0
    7.9954  -19.4378    0.0000 C   0  0
    8.5043  -18.7887    0.0000 C   0  0  1  0  0  0
    9.3347  -18.7789    0.0000 C   0  0  1  0  0  0
    9.8606  -19.4176    0.0000 C   0  0
    9.6832  -20.2255    0.0000 C   0  0  1  0  0  0
    8.8389  -21.4250    0.0000 C   0  0  2  0  0  0
    8.9409  -20.5967    0.0000 C   0  0  2  0  0  0
    8.1837  -20.2444    0.0000 C   0  0  1  0  0  0
    7.6156  -20.8569    0.0000 O   0  0
    8.0237  -21.5857    0.0000 C   0  0
    7.6777  -22.3346    0.0000 O   0  0
    8.8331  -22.2495    0.0000 C   0  0
    9.6332  -21.6370    0.0000 O   0  0
    9.7331  -20.8079    0.0000 O   0  0
    9.1165  -17.9788    0.0000 C   0  0
   10.0456  -18.3621    0.0000 O   0  0
   10.0400  -17.5371    0.0000 C   0  0
   10.7516  -17.1197    0.0000 O   0  0
    9.3227  -17.1294    0.0000 C   0  0
   10.5086  -20.2297    0.0000 O   0  0
   10.9250  -19.5174    0.0000 C   0  0
   11.7499  -19.5218    0.0000 C   0  0
   10.5163  -18.8008    0.0000 O   0  0
   12.1663  -18.8096    0.0000 C   0  0
   12.9913  -18.8140    0.0000 C   0  0
    8.3249  -17.3249    0.0000 O   0  0
    7.9088  -16.6125    0.0000 C   0  0
    8.3177  -15.8960    0.0000 O   0  0
    7.0838  -16.6166    0.0000 C   0  0
    8.7165  -19.5829    0.0000 H   0  0
    6.6678  -15.9042    0.0000 C   0  0
    5.8428  -15.9083    0.0000 C   0  0
    5.4267  -15.1960    0.0000 C   0  0
    4.6018  -15.2001    0.0000 C   0  0
    4.1857  -14.4877    0.0000 C   0  0
    3.3607  -14.4918    0.0000 C   0  0
   10.4724  -21.1730    0.0000 C   0  0
   10.4466  -21.9976    0.0000 O   0  0
   11.1956  -20.7752    0.0000 C   0  0
   11.9014  -21.2023    0.0000 C   0  0
   12.6242  -20.8046    0.0000 C   0  0
   13.3300  -21.2318    0.0000 C   0  0
   14.0528  -20.8341    0.0000 C   0  0
   14.7586  -21.2613    0.0000 C   0  0
   15.4814  -20.8636    0.0000 C   0  0
    7.3582  -20.2370    0.0000 H   0  0
  1  2  2  0
  1  3  1  0
  2  4  1  0
  2  5  1  0
  4  6  2  0
  4  7  1  0
  8  7  1  6
  9 12  2  0
  8  9  1  0
 13 10  1  0
 10  8  1  0
  9 11  1  0
 12 13  1  0
 13 14  1  0
 12 19  1  0
 14 15  1  0
 15 16  1  0
 18 16  1  0
 18 19  1  0
 17 18  1  0
 19 20  1  0
 20 21  1  0
 21 17  1  0
 21 22  2  0
 17 23  1  1
 17 24  1  0
 18 25  1  1
 14 26  1  0
 14 27  1  1
 27 28  1  0
 28 29  2  0
 28 30  1  0
 16 31  1  6
 31 32  1  0
 32 33  1  0
 32 34  2  0
 33 35  1  0
 35 36  1  0
 10 37  1  1
 37 38  1  0
 38 39  2  0
 38 40  1  0
 13 41  1  1
 40 42  1  0
 42 43  1  0
 43 44  1  0
 44 45  1  0
 45 46  1  0
 46 47  1  0
 25 48  1  0
 48 49  2  0
 48 50  1  0
 50 51  1  0
 51 52  1  0
 52 53  1  0
 53 54  1  0
 54 55  1  0
 55 56  1  0
 19 57  1  6
M  END