
          11280715462D 1   1.00000     0.00000     0

 23 23  0     1  0            999 V2000
    5.7292   -3.4125    0.0000 N   0  0  3  0  0  0           0  0  0
    5.0125   -3.8250    0.0000 C   0  0  0  0  0  0           0  0  0
    4.3000   -3.4125    0.0000 C   0  0  2  0  0  0           0  0  0
    6.4792   -3.7417    0.0000 C   0  0  2  0  0  0           0  0  0
    5.0125   -1.3500    0.0000 P   0  0  3  0  0  0           0  0  0
    4.3000   -2.5875    0.0000 C   0  0  2  0  0  0           0  0  0
    3.5875   -3.8250    0.0000 N   0  0  0  0  0  0           0  0  0
    6.6542   -4.5542    0.0000 C   0  0  0  0  0  0           0  0  0
    5.0125   -2.1750    0.0000 O   0  0  0  0  0  0           0  0  0
    5.8125   -2.5875    0.0000 C   0  0  0  0  0  0           0  0  0
    7.0292   -3.1292    0.0000 C   0  0  0  0  0  0           0  0  0
    2.8667   -3.4125    0.0000 C   0  0  0  0  0  0           0  0  0
    5.0125   -4.6500    0.0000 O   0  0  0  0  0  0           0  0  0
    4.1875   -1.3417    0.0000 O   0  0  0  0  0  0           0  0  0
    6.6167   -2.4167    0.0000 C   0  0  1  0  0  0           0  0  0
    6.0375   -5.1042    0.0000 O   0  0  0  0  0  0           0  0  0
    2.8667   -2.5875    0.0000 O   0  0  0  0  0  0           0  0  0
    5.8375   -1.3417    0.0000 O   0  0  0  0  0  0           0  0  0
    5.0042   -0.5167    0.0000 O   0  0  0  0  0  0           0  0  0
    7.4375   -4.8042    0.0000 N   0  0  0  0  0  0           0  0  0
    6.9542   -1.6625    0.0000 F   0  0  0  0  0  0           0  0  0
    3.5875   -2.1750    0.0000 C   0  0  0  0  0  0           0  0  0
    2.1542   -3.8250    0.0000 C   0  0  0  0  0  0           0  0  0
  2  1  1  0     0  0
  3  2  1  1     0  0
  4  1  1  0     0  0
  5  9  1  0     0  0
  6  3  1  0     0  0
  7  3  1  0     0  0
  4  8  1  1     0  0
  6  9  1  1     0  0
 10  1  1  0     0  0
 11  4  1  0     0  0
 12  7  1  0     0  0
 13  2  2  0     0  0
 14  5  2  0     0  0
 15 10  1  0     0  0
 16  8  2  0     0  0
 17 12  2  0     0  0
 18  5  1  0     0  0
 19  5  1  0     0  0
 20  8  1  0     0  0
 15 21  1  6     0  0
 22  6  1  0     0  0
 23 12  1  0     0  0
 15 11  1  0     0  0
M  END