
          02060813482D 1   1.00000     0.00000     0

 25 27  0     0  0            999 V2000
    2.5944  -12.3541    0.0000 C   0  0  0  0  0  0           0  0  0
    2.5932  -13.1815    0.0000 C   0  0  0  0  0  0           0  0  0
    3.3081  -13.5944    0.0000 C   0  0  0  0  0  0           0  0  0
    4.0245  -13.1810    0.0000 C   0  0  0  0  0  0           0  0  0
    4.0216  -12.3505    0.0000 C   0  0  0  0  0  0           0  0  0
    3.3063  -11.9414    0.0000 C   0  0  0  0  0  0           0  0  0
    4.7346  -11.9353    0.0000 O   0  0  0  0  0  0           0  0  0
    4.7396  -13.5924    0.0000 C   0  0  0  0  0  0           0  0  0
    4.7360  -14.4178    0.0000 C   0  0  0  0  0  0           0  0  0
    5.4503  -14.8291    0.0000 C   0  0  0  0  0  0           0  0  0
    6.1651  -14.4154    0.0000 C   0  0  0  0  0  0           0  0  0
    6.1612  -13.5861    0.0000 C   0  0  0  0  0  0           0  0  0
    5.4463  -13.1785    0.0000 N   0  0  0  0  0  0           0  0  0
    6.8735  -13.1700    0.0000 O   0  0  0  0  0  0           0  0  0
    6.8808  -14.8258    0.0000 C   0  0  0  0  0  0           0  0  0
    7.5917  -15.2375    0.0000 N   0  0  0  0  0  0           0  0  0
    5.4512  -15.6541    0.0000 C   0  0  0  0  0  0           0  0  0
    4.7377  -16.0624    0.0000 C   0  0  0  0  0  0           0  0  0
    4.7383  -16.8866    0.0000 C   0  0  0  0  0  0           0  0  0
    5.4537  -17.2992    0.0000 C   0  0  0  0  0  0           0  0  0
    6.1701  -16.8815    0.0000 C   0  0  0  0  0  0           0  0  0
    6.1661  -16.0586    0.0000 C   0  0  0  0  0  0           0  0  0
    1.8784  -13.5934    0.0000 Br  0  0  0  0  0  0           0  0  0
    6.8777  -15.6413    0.0000 C   0  0  0  0  0  0           0  0  0
    4.0241  -17.2996    0.0000 C   0  0  0  0  0  0           0  0  0
  6  1  1  0     0  0
 12 13  1  0     0  0
 13  8  1  0     0  0
  1  2  2  0     0  0
 12 14  2  0     0  0
  5  7  1  0     0  0
 11 15  1  0     0  0
  3  4  2  0     0  0
 15 16  3  0     0  0
  4  8  1  0     0  0
 10 17  1  0     0  0
 17 18  2  0     0  0
  8  9  2  0     0  0
 18 19  1  0     0  0
  4  5  1  0     0  0
 19 20  2  0     0  0
  9 10  1  0     0  0
 20 21  1  0     0  0
  2  3  1  0     0  0
 21 22  2  0     0  0
 22 17  1  0     0  0
 10 11  2  0     0  0
  2 23  1  0     0  0
  5  6  2  0     0  0
 22 24  1  0     0  0
 11 12  1  0     0  0
 19 25  1  0     0  0
M  END