
  SciTegic01181116592D

 20 21  0  0  0  0            999 V2000
   17.0819  -19.6666    0.0000 C   0  0
   17.0807  -20.4940    0.0000 C   0  0
   17.7956  -20.9069    0.0000 N   0  0
   18.5120  -20.4935    0.0000 C   0  0
   18.5091  -19.6630    0.0000 C   0  0
   17.7938  -19.2539    0.0000 C   0  0
   19.2221  -19.2478    0.0000 C   0  0
   19.2189  -18.4228    0.0000 C   0  0
   19.9319  -18.0076    0.0000 C   0  0
   19.9287  -17.1826    0.0000 O   0  0
   20.6417  -16.7674    0.0000 C   0  0
   20.6386  -15.9424    0.0000 O   0  0
   21.3577  -17.1772    0.0000 N   0  0
   21.3608  -18.0022    0.0000 C   0  0
   20.6462  -18.4123    0.0000 C   0  0
   20.6490  -19.2365    0.0000 C   0  0
   21.3656  -19.6472    0.0000 C   0  0
   22.0808  -19.2276    0.0000 C   0  0
   22.0746  -18.4047    0.0000 C   0  0
   21.3698  -20.4722    0.0000 Br  0  0
  9 10  1  0
  2  3  1  0
 10 11  1  0
  5  6  2  0
 11 12  2  0
  6  1  1  0
 11 13  1  0
  1  2  2  0
 13 14  1  0
  5  7  1  0
 14 15  2  0
  3  4  2  0
 15 16  1  0
  7  8  1  0
 16 17  2  0
 17 18  1  0
  8  9  1  0
 18 19  2  0
 19 14  1  0
  4  5  1  0
 17 20  1  0
M  END