
  SciTegic01161211212D

 19 21  0  0  0  0            999 V2000
    9.0442  -10.3087    0.0000 C   0  0
    9.0430  -11.1337    0.0000 C   0  0
    9.7559  -11.5455    0.0000 C   0  0
    9.7541   -9.8971    0.0000 C   0  0
   10.4674  -10.3051    0.0000 C   0  0
   10.4708  -11.1313    0.0000 C   0  0
   11.1841  -11.5391    0.0000 C   0  0
   11.1773   -9.8868    0.0000 C   0  0
   11.8951  -10.2993    0.0000 C   0  0  2  0  0  0
   11.9010  -11.1272    0.0000 C   0  0  2  0  0  0
   12.6902  -11.3775    0.0000 C   0  0
   13.1723  -10.7041    0.0000 C   0  0
   12.6807  -10.0379    0.0000 N   0  0
   11.8876   -9.4736    0.0000 H   0  0
   11.8960  -11.9459    0.0000 H   0  0
   13.0711   -9.3146    0.0000 C   0  0
   13.8935   -9.2914    0.0000 C   0  0
   14.2846   -8.5676    0.0000 C   0  0
    9.7564  -12.3682    0.0000 O   0  0
  9 10  1  0
  5  4  2  0
  4  1  1  0
  5  6  1  0
  2  3  1  0
 10 11  1  0
 11 12  1  0
 12 13  1  0
 13  9  1  0
  3  6  2  0
  9 14  1  6
  1  2  2  0
 10 15  1  1
  5  8  1  0
 13 16  1  0
  6  7  1  0
 16 17  1  0
  7 10  1  0
 17 18  1  0
  9  8  1  0
  3 19  1  0
M  END