
  Mrv0541 04051115152D          

 28 29  0  0  0  0            999 V2000
   -1.0582   -0.3716    0.0000 O   0  0  0  0  0  0  0  0  0  0  0  0
   -1.4707    0.3429    0.0000 S   0  0  0  0  0  0  0  0  0  0  0  0
   -1.8832    1.0573    0.0000 O   0  0  0  0  0  0  0  0  0  0  0  0
   -2.1852   -0.0696    0.0000 N   0  0  0  0  0  0  0  0  0  0  0  0
   -2.8997    0.3429    0.0000 C   0  0  1  0  0  0  0  0  0  0  0  0
   -2.8997    1.1679    0.0000 C   0  0  0  0  0  0  0  0  0  0  0  0
   -3.6141    1.5804    0.0000 O   0  0  0  0  0  0  0  0  0  0  0  0
   -2.1852    1.5804    0.0000 O   0  0  0  0  0  0  0  0  0  0  0  0
   -3.6141   -0.0696    0.0000 C   0  0  0  0  0  0  0  0  0  0  0  0
   -4.3286    0.3429    0.0000 C   0  0  0  0  0  0  0  0  0  0  0  0
   -5.0431   -0.0696    0.0000 C   0  0  0  0  0  0  0  0  0  0  0  0
   -5.7575    0.3429    0.0000 O   0  0  0  0  0  0  0  0  0  0  0  0
   -5.0431   -0.8946    0.0000 O   0  0  0  0  0  0  0  0  0  0  0  0
   -0.7562    0.7554    0.0000 C   0  0  0  0  0  0  0  0  0  0  0  0
   -0.0418    0.3429    0.0000 C   0  0  0  0  0  0  0  0  0  0  0  0
    0.6727    0.7554    0.0000 C   0  0  0  0  0  0  0  0  0  0  0  0
    0.6727    1.5804    0.0000 C   0  0  0  0  0  0  0  0  0  0  0  0
   -0.0418    1.9929    0.0000 C   0  0  0  0  0  0  0  0  0  0  0  0
   -0.7562    1.5804    0.0000 C   0  0  0  0  0  0  0  0  0  0  0  0
    1.3872    1.9929    0.0000 C   0  0  0  0  0  0  0  0  0  0  0  0
    1.3872    2.8179    0.0000 C   0  0  0  0  0  0  0  0  0  0  0  0
    0.6727    3.2304    0.0000 C   0  0  0  0  0  0  0  0  0  0  0  0
   -0.0418    2.8179    0.0000 C   0  0  0  0  0  0  0  0  0  0  0  0
    2.1016    3.2304    0.0000 O   0  0  0  0  0  0  0  0  0  0  0  0
    2.8161    2.8179    0.0000 C   0  0  0  0  0  0  0  0  0  0  0  0
    3.5306    3.2304    0.0000 C   0  0  0  0  0  0  0  0  0  0  0  0
    4.2451    2.8179    0.0000 C   0  0  0  0  0  0  0  0  0  0  0  0
    4.9595    3.2304    0.0000 C   0  0  0  0  0  0  0  0  0  0  0  0
  1  2  2  0  0  0  0
  3  2  2  0  0  0  0
  4  2  1  0  0  0  0
 14  2  1  0  0  0  0
  5  4  1  6  0  0  0
  6  5  1  0  0  0  0
  5  9  1  0  0  0  0
  6  7  2  0  0  0  0
  6  8  1  0  0  0  0
  9 10  1  0  0  0  0
 11 10  1  0  0  0  0
 11 12  1  0  0  0  0
 11 13  2  0  0  0  0
 14 15  1  0  0  0  0
 14 19  2  0  0  0  0
 15 16  2  0  0  0  0
 16 17  1  0  0  0  0
 17 18  2  0  0  0  0
 17 20  1  0  0  0  0
 18 19  1  0  0  0  0
 18 23  1  0  0  0  0
 21 20  2  0  0  0  0
 22 21  1  0  0  0  0
 21 24  1  0  0  0  0
 23 22  2  0  0  0  0
 25 24  1  0  0  0  0
 25 26  1  0  0  0  0
 26 27  1  0  0  0  0
 27 28  1  0  0  0  0
M  END