
  CDK    9/16/09,9:41

 24 27  0  0  0  0  0  0  0  0999 V2000
    8.0364   -1.2293    0.0000 C   0  0  0  0  0  0  0  0  0  0  0  0
    8.0222   -2.0611    0.0000 C   0  0  0  0  0  0  0  0  0  0  0  0
    8.7544   -2.4878    0.0000 C   0  0  0  0  0  0  0  0  0  0  0  0
    9.4684   -2.0795    0.0000 C   0  0  0  0  0  0  0  0  0  0  0  0
    9.4782   -1.2525    0.0000 C   0  0  0  0  0  0  0  0  0  0  0  0
    8.7644   -0.8250    0.0000 C   0  0  0  0  0  0  0  0  0  0  0  0
   10.2021   -0.8490    0.0000 C   0  0  0  0  0  0  0  0  0  0  0  0
   10.9155   -1.2771    0.0000 N   0  0  0  0  0  0  0  0  0  0  0  0
   11.6394   -0.8737    0.0000 C   0  0  0  0  0  0  0  0  0  0  0  0
   12.3534   -1.3015    0.0000 C   0  0  0  0  0  0  0  0  0  0  0  0
   13.6779   -1.3032    0.0000 N   0  0  0  0  0  0  0  0  0  0  0  0
   13.0003   -0.8197    0.0000 C   0  0  0  0  0  0  0  0  0  0  0  0
   13.4308   -2.0821    0.0000 C   0  0  0  0  0  0  0  0  0  0  0  0
   12.6075   -2.0814    0.0000 C   0  0  0  0  0  0  0  0  0  0  0  0
   12.2005   -2.7926    0.0000 C   0  0  0  0  0  0  0  0  0  0  0  0
   12.6061   -3.5031    0.0000 C   0  0  0  0  0  0  0  0  0  0  0  0
   13.4395   -3.5111    0.0000 C   0  0  0  0  0  0  0  0  0  0  0  0
   13.8459   -2.7948    0.0000 C   0  0  0  0  0  0  0  0  0  0  0  0
   14.3741   -0.8530    0.0000 C   0  0  0  0  0  0  0  0  0  0  0  0
   15.1115   -1.2355    0.0000 C   0  0  0  0  0  0  0  0  0  0  0  0
   15.7997   -0.7928    0.0000 C   0  0  0  0  0  0  0  0  0  0  0  0
   15.7705    0.0314    0.0000 C   0  0  0  0  0  0  0  0  0  0  0  0
   15.0376    0.4117    0.0000 C   0  0  0  0  0  0  0  0  0  0  0  0
   14.3439   -0.0348    0.0000 C   0  0  0  0  0  0  0  0  0  0  0  0
 13 11  1  0  0  0  0 
 11 12  1  0  0  0  0 
 12 10  2  0  0  0  0 
  5  6  1  0  0  0  0 
 13 14  2  0  0  0  0 
  5  7  1  0  0  0  0 
 14 15  1  0  0  0  0 
  1  2  1  0  0  0  0 
 15 16  2  0  0  0  0 
  7  8  1  0  0  0  0 
 16 17  1  0  0  0  0 
  1  6  1  0  0  0  0 
 17 18  2  0  0  0  0 
 18 13  1  0  0  0  0 
  8  9  1  0  0  0  0 
 11 19  1  0  0  0  0 
  2  3  1  0  0  0  0 
 19 20  2  0  0  0  0 
  9 10  1  0  0  0  0 
 20 21  1  0  0  0  0 
 10 14  1  0  0  0  0 
 21 22  2  0  0  0  0 
  3  4  1  0  0  0  0 
 22 23  1  0  0  0  0 
  4  5  1  0  0  0  0 
 23 24  2  0  0  0  0 
 24 19  1  0  0  0  0 
M  END