
  SciTegic09081514162D

 22 24  0  0  0  0            999 V2000
   -0.9982    3.0140    0.0000 C   0  0
   -1.0028    1.5132    0.0000 C   0  0
   -2.3155    0.7475    0.0000 C   0  0
   -2.3155   -0.7475    0.0000 C   0  0
   -1.0028   -1.5132    0.0000 C   0  0
    0.2917    0.7475    0.0000 C   0  0
    0.2917   -0.7475    0.0000 C   0  0
    1.7138   -1.2033    0.0000 N   0  0
    2.5889    0.0182    0.0000 C   0  0
    1.7138    1.2033    0.0000 C   0  0
    0.2116    3.8786    0.0000 N   0  0
   -0.2579    5.3032    0.0000 O   0  0
   -1.7578    5.2970    0.0000 C   0  0
   -2.2155    3.8686    0.0000 N   0  0
   -2.6460    6.5037    0.0000 C   0  0
   -2.1644    7.6028    0.0000 O   0  0
   -4.1377    6.3385    0.0000 N   0  0
   -5.0274    7.5472    0.0000 C   0  0
   -6.5191    7.3820    0.0000 C   0  0
   -7.4087    8.5907    0.0000 C   0  0
   -8.9005    8.4255    0.0000 O   0  0
   -9.6118    9.3920    0.0000 C   0  0
  1  2  1  0
  2  3  2  0
  3  4  1  0
  4  5  2  0
  5  7  1  0
  6  2  1  0
  6  7  2  0
  7  8  1  0
  8  9  1  0
  9 10  2  0
 10  6  1  0
  1 11  2  0
 11 12  1  0
 12 13  1  0
 13 14  2  0
 14  1  1  0
 13 15  1  0
 15 16  2  0
 15 17  1  0
 17 18  1  0
 18 19  1  0
 19 20  1  0
 20 21  1  0
 21 22  1  0
M  END