
  SciTegic04151115542D

 23 25  0  0  0  0            999 V2000
   -4.1530   -7.5535    0.0000 C   0  0
   -4.1542   -8.3804    0.0000 C   0  0
   -3.4397   -8.7929    0.0000 C   0  0
   -2.7238   -8.3799    0.0000 C   0  0
   -2.7267   -7.5499    0.0000 C   0  0
   -3.4415   -7.1410    0.0000 C   0  0
   -4.8726   -8.8045    0.0000 Cl  0  0
   -2.0058   -7.1308    0.0000 N   0  0
   -2.0106   -6.3036    0.0000 C   0  0
   -2.7265   -5.8887    0.0000 C   0  0
   -1.2955   -5.8914    0.0000 O   0  0
   -2.7271   -5.0615    0.0000 N   0  0
   -3.4374   -6.3009    0.0000 O   0  0
   -3.4399   -9.6174    0.0000 F   0  0
   -2.0146   -4.6508    0.0000 C   0  0
   -2.0152   -3.8203    0.0000 C   0  0
   -1.3982   -3.2625    0.0000 C   0  0
   -1.7314   -2.5211    0.0000 C   0  0
   -2.5494   -2.6008    0.0000 N   0  0
   -2.7246   -3.4064    0.0000 C   0  0
   -3.1008   -1.9815    0.0000 C   0  0
   -3.2672   -1.1741    0.0000 C   0  0
   -3.8833   -1.7219    0.0000 C   0  0
  9 11  2  0
 10 12  1  0
  5  6  2  0
 10 13  2  0
 12 15  1  0
  6  1  1  0
  3 14  1  0
  2  3  1  0
  2  7  1  0
 16 17  1  0
 15 16  1  0
  5  8  1  0
  3  4  2  0
  8  9  1  0
 17 18  1  0
 18 19  1  0
 19 20  1  0
 20 16  1  0
 22 21  1  0
 23 22  1  0
 21 23  1  0
  1  2  2  0
  9 10  1  0
  4  5  1  0
 19 21  1  0
M  END