
  SciTegic02131210002D

 22 25  0  0  0  0            999 V2000
   10.0430    1.1623    0.0000 C   0  0
   10.0418    0.3352    0.0000 C   0  0
   10.7565   -0.0777    0.0000 C   0  0
   10.7547    1.5751    0.0000 C   0  0
   11.4700    1.1660    0.0000 C   0  0
   11.4749    0.3351    0.0000 C   0  0
   12.2666    0.0829    0.0000 O   0  0
   12.2587    1.4273    0.0000 C   0  0
   12.7489    0.7588    0.0000 C   0  0
   13.9133    1.4550    0.0000 N   0  0
   13.4823    2.1667    0.0000 C   0  0
   12.6569    2.1488    0.0000 N   0  0
   13.8795    2.8897    0.0000 N   0  0
    9.3284    1.5747    0.0000 Cl  0  0
   13.4647    0.7540    0.0000 C   0  0
   13.8576    0.0291    0.0000 N   0  0
   13.3798   -0.6403    0.0000 C   0  0
   13.8701   -1.3031    0.0000 C   0  0
   14.6523   -1.0415    0.0000 C   0  0
   14.6451   -0.2170    0.0000 C   0  0
   15.3237   -1.5206    0.0000 N   0  0
   15.2446   -2.3416    0.0000 C   0  0
  5  6  1  0
 10 11  1  0
 11 12  2  0
 12  8  1  0
  2  3  1  0
 11 13  1  0
  3  6  2  0
  1 14  1  0
  6  7  1  0
  9 15  1  0
  7  9  1  0
 15 16  1  0
 16 17  1  0
  8  5  1  0
  1  2  2  0
  5  4  2  0
  8  9  2  0
 17 18  1  0
 18 19  1  0
 19 20  1  0
 20 16  1  0
  4  1  1  0
 19 21  1  0
 15 10  2  0
 21 22  1  0
M  END