
          11280715412D 1   1.00000     0.00000     0

 23 25  0     0  0            999 V2000
    5.3125   -2.7625    0.0000 N   0  0  3  0  0  0           0  0  0
    6.0375   -2.3542    0.0000 C   0  0  3  0  0  0           0  0  0
    4.7250   -2.1750    0.0000 N   0  0  0  0  0  0           0  0  0
    3.9875   -2.5500    0.0000 N   0  0  0  0  0  0           0  0  0
    4.9375   -3.5000    0.0000 C   0  0  0  0  0  0           0  0  0
    6.7500   -1.9417    0.0000 C   0  0  3  0  0  0           0  0  0
    4.1125   -3.3667    0.0000 C   0  0  0  0  0  0           0  0  0
    5.3167   -1.9417    0.0000 C   0  0  3  0  0  0           0  0  0
    7.4625   -2.3542    0.0000 C   0  0  3  0  0  0           0  0  0
    6.9917   -1.4292    0.0000 O   0  0  0  0  0  0           0  0  0
    6.1417   -1.9417    0.0000 C   0  0  3  0  0  0           0  0  0
    3.5292   -3.9500    0.0000 C   0  0  0  0  0  0           0  0  0
    8.0750   -2.9042    0.0000 S   0  0  0  0  0  0           0  0  0
    6.7417   -2.7625    0.0000 O   0  0  0  0  0  0           0  0  0
    4.9000   -1.2250    0.0000 O   0  0  0  0  0  0           0  0  0
    5.9250   -1.1417    0.0000 C   0  0  0  0  0  0           0  0  0
    6.5042   -0.5542    0.0000 O   0  0  0  0  0  0           0  0  0
    2.7417   -3.7292    0.0000 C   0  0  0  0  0  0           0  0  0
    3.7417   -4.7292    0.0000 C   0  0  0  0  0  0           0  0  0
    7.9042   -3.7125    0.0000 C   0  0  0  0  0  0           0  0  0
    3.1667   -5.3125    0.0000 C   0  0  0  0  0  0           0  0  0
    2.1625   -4.3125    0.0000 C   0  0  0  0  0  0           0  0  0
    2.3667   -5.1042    0.0000 C   0  0  0  0  0  0           0  0  0
  2  1  1  0     0  0
  3  1  1  0     0  0
  4  3  2  0     0  0
  5  1  1  0     0  0
  6  2  1  0     0  0
  7  5  2  0     0  0
  8  2  1  0     0  0
  9  6  1  0     0  0
 10 11  1  0     0  0
 11  8  1  0     0  0
 12  7  1  0     0  0
 13  9  1  0     0  0
 14  6  1  0     0  0
 15  8  1  0     0  0
 16 11  1  0     0  0
 17 16  1  0     0  0
 18 12  2  0     0  0
 19 12  1  0     0  0
 20 13  1  0     0  0
 21 19  2  0     0  0
 22 18  1  0     0  0
 23 21  1  0     0  0
  7  4  1  0     0  0
  9 10  1  0     0  0
 22 23  2  0     0  0
M  END