
  SciTegic11201309402D

 73 75  0  0  1  0            999 V2000
    4.6000   -6.1167    0.0000 C   0  0
    3.7750   -6.0667    0.0000 C   0  0  1  0  0  0
    3.6875   -5.2500    0.0000 N   0  0
    2.0792   -3.4667    0.0000 N   0  0
   -1.5083   -5.8000    0.0000 N   0  0
   -0.3083   -3.7167    0.0000 N   0  0
    3.3500   -4.4917    0.0000 C   0  0
   -1.4208   -6.6167    0.0000 C   0  0
   -0.9208   -4.2667    0.0000 C   0  0
    4.9750   -6.8500    0.0000 N   0  0
    6.3750   -6.3917    0.0000 C   0  0
    1.2750   -3.2917    0.0000 C   0  0
    2.8000   -3.8792    0.0000 C   0  0  2  0  0  0
   -0.5333   -7.9875    0.0000 N   0  0
   -1.3333   -4.9875    0.0000 C   0  0  2  0  0  0
   -1.0833   -7.3750    0.0000 C   0  0  2  0  0  0
    6.1667   -5.6000    0.0000 N   0  0
    5.7917   -6.9792    0.0000 C   0  0  1  0  0  0
    3.3167   -3.2375    0.0000 C   0  0
    0.4500   -3.3792    0.0000 C   0  0  1  0  0  0
    0.1875   -8.4000    0.0000 C   0  0
    6.5292   -4.2125    0.0000 C   0  0
   10.3125   -4.4875    0.0000 C   0  0
    4.1125   -3.0167    0.0000 C   0  0
    7.1167   -3.6292    0.0000 N   0  0
    3.1875   -7.5917    0.0000 S   0  0
    6.7417   -5.0125    0.0000 C   0  0  1  0  0  0
    2.5750   -8.1500    0.0000 S   0  0
    7.4917   -2.2417    0.0000 C   0  0
    0.6042   -1.2000    0.0000 C   0  0
   10.8917   -3.9042    0.0000 N   0  0
    5.0500   -5.4250    0.0000 O   0  0
    7.1750   -6.6125    0.0000 O   0  0
   -2.2208   -6.8292    0.0000 O   0  0
    4.0417   -4.0417    0.0000 O   0  0
   -1.5625   -3.7500    0.0000 O   0  0
    1.3167   -2.4667    0.0000 O   0  0
    3.6042   -6.8792    0.0000 C   0  0
   -1.7833   -7.8250    0.0000 C   0  0
   -2.1083   -4.6917    0.0000 C   0  0
    0.9917   -8.5750    0.0000 C   0  0
    5.7292   -4.0000    0.0000 O   0  0
   -0.1125   -9.1750    0.0000 O   0  0
    4.7000   -3.5917    0.0000 O   0  0
    8.2875   -2.4625    0.0000 O   0  0
   -0.1958   -0.9792    0.0000 O   0  0
    0.2375   -2.5792    0.0000 C   0  0
    9.5125   -4.2750    0.0000 N   0  0
    6.9042   -2.8292    0.0000 C   0  0
   10.5292   -5.2792    0.0000 N   0  0
    4.3167   -2.2167    0.0000 N   0  0
    0.8167   -1.9917    0.0000 C   0  0
   -2.6083   -7.8250    0.0000 C   0  0
    1.1917   -0.6125    0.0000 N   0  0
    7.2792   -1.4500    0.0000 N   0  0
   -4.2708   -7.8167    0.0000 C   0  0
   -2.6958   -4.1042    0.0000 C   0  0
    4.6000   -7.5917    0.0000 C   0  0
    1.8167   -8.4875    0.0000 C   0  0
   -3.0208   -8.5375    0.0000 C   0  0
   -3.0208   -7.1042    0.0000 C   0  0
   -3.8458   -7.1000    0.0000 C   0  0
   -3.8458   -8.5417    0.0000 C   0  0
   -5.0958   -7.8167    0.0000 O   0  0
    6.0417   -7.7667    0.0000 C   0  0
    7.5417   -5.2292    0.0000 C   0  0
    8.9292   -4.8542    0.0000 C   0  0
   -3.4958   -4.3167    0.0000 C   0  0
   -2.4750   -3.2917    0.0000 C   0  0
    8.1292   -4.6417    0.0000 C   0  0
   -3.0625   -2.7042    0.0000 C   0  0
   -4.0833   -3.7292    0.0000 C   0  0
   -3.8708   -2.9250    0.0000 C   0  0
  2  1  1  6
  3  2  1  0
  4 13  1  0
  5  8  1  0
  6 20  1  0
  7  3  1  0
  8 16  1  0
  9  6  1  0
 10  1  1  0
 11 18  1  0
 12  4  1  0
 13  7  1  0
 14 21  1  0
 15  9  1  0
 16 14  1  0
 17 11  1  0
 18 10  1  0
 13 19  1  1
 20 12  1  0
 21 41  1  0
 22 27  1  0
 23 48  2  0
 24 19  1  0
 25 22  1  0
 26 38  1  0
 27 17  1  1
 28 26  1  0
 29 49  1  0
 30 52  1  0
 31 23  1  0
 32  1  2  0
 33 11  2  0
 34  8  2  0
 35  7  2  0
 36  9  2  0
 37 12  2  0
  2 38  1  0
 16 39  1  6
 15 40  1  1
 41 59  1  0
 42 22  2  0
 43 21  2  0
 44 24  2  0
 45 29  2  0
 46 30  2  0
 20 47  1  6
 48 67  1  0
 49 25  1  0
 50 23  1  0
 51 24  1  0
 52 47  1  0
 53 39  1  0
 54 30  1  0
 55 29  1  0
 56 62  2  0
 57 40  1  0
 58 10  1  0
 59 28  1  0
 60 53  1  0
 61 53  2  0
 62 61  1  0
 63 60  2  0
 64 56  1  0
 18 65  1  1
 27 66  1  0
 67 70  1  0
 68 57  1  0
 69 57  2  0
 70 66  1  0
 71 69  1  0
 72 68  2  0
 73 71  2  0
  5 15  1  0
 63 56  1  0
 72 73  1  0
M  END