
  SciTegic01161211242D

 22 23  0  0  0  0            999 V2000
   10.9986   -9.4208    0.0000 C   0  0
   10.9974  -10.2482    0.0000 C   0  0
   11.7122  -10.6610    0.0000 C   0  0
   11.7104   -9.0080    0.0000 C   0  0
   12.4258   -9.4172    0.0000 C   0  0
   12.4266  -10.2440    0.0000 C   0  0
   13.1419  -10.6550    0.0000 C   0  0
   13.8569  -10.2402    0.0000 N   0  0
   13.8521   -9.4102    0.0000 C   0  0
   13.1362   -9.0030    0.0000 C   0  0
   13.1319   -8.1780    0.0000 O   0  0
   13.1436  -11.4800    0.0000 Cl  0  0
   14.5641   -8.9934    0.0000 C   0  0
   15.2810   -9.4015    0.0000 N   0  0
   14.5591   -8.1684    0.0000 O   0  0
   15.9930   -8.9847    0.0000 C   0  0  1  0  0  0
   16.7100   -9.3928    0.0000 C   0  0
   17.4219   -8.9760    0.0000 O   0  0
   16.7150  -10.2178    0.0000 O   0  0
   15.9880   -8.1597    0.0000 C   0  0
   16.6999   -7.7429    0.0000 C   0  0
   15.2710   -7.7516    0.0000 C   0  0
 10 11  1  0
  2  3  1  0
  7 12  1  0
  5  6  1  0
  9 13  1  0
  3  6  2  0
 13 14  1  0
  6  7  1  0
 13 15  2  0
  1  2  2  0
 14 16  1  0
  7  8  2  0
 16 17  1  0
  5  4  2  0
 17 18  1  0
  8  9  1  0
 17 19  2  0
  4  1  1  0
 16 20  1  6
  9 10  2  0
 20 21  1  0
 10  5  1  0
 20 22  1  0
M  END