
  SciTegic09261414462D

 29 31  0  0  0  0            999 V2000
   34.5655   -4.1520    0.0000 O   0  0
   33.7772   -4.3666    0.0000 S   0  0
   34.3573   -4.9420    0.0000 O   0  0
   30.9611   -6.0133    0.0000 C   0  0
   30.9599   -6.8329    0.0000 C   0  0
   31.6680   -7.2418    0.0000 C   0  0
   31.6662   -5.6045    0.0000 C   0  0
   32.3748   -6.0097    0.0000 C   0  0
   32.3755   -6.8288    0.0000 C   0  0
   33.0841   -7.2358    0.0000 C   0  0
   33.7923   -6.8250    0.0000 C   0  0
   33.7876   -6.0029    0.0000 C   0  0
   33.0785   -5.5995    0.0000 C   0  0
   33.0858   -8.0530    0.0000 O   0  0
   34.5016   -7.2308    0.0000 S   0  0
   33.0742   -4.7823    0.0000 N   0  0
   33.7754   -3.5528    0.0000 C   0  0
   34.4850   -3.1439    0.0000 C   0  0
   34.4810   -2.3274    0.0000 C   0  0
   33.7706   -1.9248    0.0000 C   0  0
   33.0627   -2.3385    0.0000 C   0  0
   33.0702   -3.1536    0.0000 C   0  0
   34.5048   -8.0480    0.0000 C   0  0
   35.2141   -8.4539    0.0000 C   0  0
   35.2204   -9.2704    0.0000 O   0  0
   35.9233   -8.0419    0.0000 O   0  0
   33.7652   -1.1076    0.0000 C   0  0
   34.4701   -0.6943    0.0000 C   0  0
   33.0547   -0.7037    0.0000 C   0  0
  2  1  2  0
  3  2  2  0
  4  5  2  0
  5  6  1  0
  6  9  2  0
  8  7  2  0
  7  4  1  0
  8  9  1  0
  9 10  1  0
 10 11  2  0
 11 12  1  0
 12 13  2  0
 13  8  1  0
 10 14  1  0
 11 15  1  0
 13 16  1  0
 16  2  1  0
  2 17  1  0
 17 18  2  0
 18 19  1  0
 19 20  2  0
 20 21  1  0
 21 22  2  0
 22 17  1  0
 15 23  1  0
 23 24  1  0
 24 25  1  0
 24 26  2  0
 20 27  1  0
 27 28  1  0
 27 29  1  0
M  END