
          05080814032D 1   1.00000     0.00000     0

 30 33  0     1  0            999 V2000
   -2.7744   -1.0907    0.0000 C   0  0  0  0  0  0           0  0  0
   -2.7756   -1.9183    0.0000 C   0  0  0  0  0  0           0  0  0
   -2.0627   -2.3312    0.0000 C   0  0  0  0  0  0           0  0  0
   -2.0647   -0.6780    0.0000 C   0  0  0  0  0  0           0  0  0
   -1.3466   -1.0867    0.0000 C   0  0  0  0  0  0           0  0  0
   -1.3428   -1.9203    0.0000 C   0  0  0  0  0  0           0  0  0
   -0.6231   -2.3317    0.0000 C   0  0  0  0  0  0           0  0  0
    0.0976   -1.9139    0.0000 N   0  0  3  0  0  0           0  0  0
    0.0939   -1.0804    0.0000 C   0  0  0  0  0  0           0  0  0
   -0.6305   -0.6645    0.0000 C   0  0  2  0  0  0           0  0  0
    0.8133   -2.3242    0.0000 C   0  0  0  0  0  0           0  0  0
   -0.6353    0.1605    0.0000 C   0  0  0  0  0  0           0  0  0
    0.0763    0.5719    0.0000 C   0  0  0  0  0  0           0  0  0
    0.0718    1.3960    0.0000 C   0  0  0  0  0  0           0  0  0
   -0.6454    1.8051    0.0000 C   0  0  0  0  0  0           0  0  0
   -1.3599    1.3841    0.0000 C   0  0  0  0  0  0           0  0  0
   -1.3518    0.5613    0.0000 C   0  0  0  0  0  0           0  0  0
   -3.4907   -2.3298    0.0000 O   0  0  0  0  0  0           0  0  0
   -4.2045   -1.9162    0.0000 C   0  0  0  0  0  0           0  0  0
   -4.2033   -1.0913    0.0000 C   0  0  0  0  0  0           0  0  0
   -4.9172   -0.6778    0.0000 C   0  0  0  0  0  0           0  0  0
   -4.9160    0.1472    0.0000 N   0  0  3  0  0  0           0  0  0
   -4.2000    0.5601    0.0000 C   0  0  2  0  0  0           0  0  0
   -4.1969    1.3815    0.0000 C   0  0  0  0  0  0           0  0  0
   -4.9089    1.7988    0.0000 O   0  0  0  0  0  0           0  0  0
   -5.6258    1.3887    0.0000 C   0  0  0  0  0  0           0  0  0
   -5.6306    0.5611    0.0000 C   0  0  0  0  0  0           0  0  0
   -3.4865    0.1462    0.0000 C   0  0  0  0  0  0           0  0  0
   -0.6514    2.6301    0.0000 O   0  0  0  0  0  0           0  0  0
    0.0601    3.0477    0.0000 C   0  0  0  0  0  0           0  0  0
  1  2  2  0     0  0
 14 15  2  0     0  0
  5  4  2  0     0  0
 15 16  1  0     0  0
  4  1  1  0     0  0
 16 17  2  0     0  0
 17 12  1  0     0  0
  5 10  1  0     0  0
  2 18  1  0     0  0
  6  7  1  0     0  0
 18 19  1  0     0  0
  7  8  1  0     0  0
 19 20  1  0     0  0
  8  9  1  0     0  0
 20 21  1  0     0  0
  9 10  1  0     0  0
 21 22  1  0     0  0
 22 23  1  0     0  0
  5  6  1  0     0  0
  8 11  1  0     0  0
 10 12  1  1     0  0
  2  3  1  0     0  0
 22 27  1  0     0  0
 23 24  1  0     0  0
 24 25  1  0     0  0
 25 26  1  0     0  0
 26 27  1  0     0  0
 12 13  2  0     0  0
 23 28  1  6     0  0
  3  6  2  0     0  0
 15 29  1  0     0  0
 13 14  1  0     0  0
 29 30  1  0     0  0
M  END