
  SciTegic01161211252D

 33 35  0  0  0  0            999 V2000
    6.0667   -2.2292    0.0000 N   0  0
    6.8583   -1.9917    0.0000 C   0  0
    6.8750   -1.1625    0.0000 C   0  0
    6.0958   -0.8917    0.0000 N   0  3
    5.7958   -3.0042    0.0000 C   0  0  1  0  0  0
    7.5625   -2.4208    0.0000 N   0  0
    5.6000   -1.5500    0.0000 C   0  0
    1.5000   -5.0208    0.0000 P   0  0
    7.6000   -0.7625    0.0000 C   0  0
    8.3083   -1.1917    0.0000 N   0  0
    6.2625   -3.6875    0.0000 C   0  0  1  0  0  0
    8.2917   -2.0250    0.0000 C   0  0
    5.0042   -3.2458    0.0000 O   0  0
    2.8833   -4.6583    0.0000 P   0  0
    2.2917   -5.2375    0.0000 O   0  0
    0.9125   -5.6042    0.0000 O   0  0
    0.1167   -5.3833    0.0000 P   0  0
    4.9833   -4.0708    0.0000 C   0  0  1  0  0  0
    5.7625   -4.3458    0.0000 C   0  0  1  0  0  0
    1.2875   -4.2250    0.0000 O   0  0
    4.3042   -4.5417    0.0000 C   0  0
    1.9083   -5.7375    0.0000 O   0  0
    3.5625   -4.1875    0.0000 O   0  0
    7.6167    0.0625    0.0000 O   0  0
    3.4125   -5.2917    0.0000 O   0  5
   -0.4708   -5.9667    0.0000 O   0  0
    2.3542   -4.0208    0.0000 O   0  0
   -0.0917   -4.5875    0.0000 O   0  0
    8.9958   -2.4500    0.0000 N   0  0
    5.8542   -0.1042    0.0000 C   0  0
    7.0875   -3.7083    0.0000 O   0  0
    0.5250   -6.1000    0.0000 O   0  0
    6.0000   -5.1333    0.0000 O   0  0
  2  1  1  0
  3  2  2  0
  4  7  2  0
  5  1  1  1
  6  2  1  0
  7  1  1  0
  8 15  1  0
  9  3  1  0
 10  9  1  0
 11  5  1  0
 12  6  2  0
 13  5  1  0
 14 23  1  0
 15 14  1  0
 16  8  1  0
 17 16  1  0
 18 13  1  0
 19 11  1  0
 20  8  1  0
 18 21  1  1
 22  8  2  0
 23 21  1  0
 24  9  2  0
 25 14  1  0
 26 17  1  0
 27 14  2  0
 28 17  2  0
 29 12  1  0
 30  4  1  0
 11 31  1  6
 32 17  1  0
 19 33  1  6
  4  3  1  0
 19 18  1  0
 10 12  1  0
M  CHG  2   4   1  25  -1
M  END