
  SciTegic02011310442D

 37 41  0  0  0  0            999 V2000
    2.6580   -5.2151    0.0000 N   0  0
    3.3745   -4.8018    0.0000 C   0  0
    3.3716   -3.9712    0.0000 N   0  0
    2.6562   -3.5622    0.0000 C   0  0
    1.9433   -4.8023    0.0000 N   0  0
    1.9445   -3.9734    0.0000 C   0  0
    1.1565   -3.7160    0.0000 C   0  0
    0.6682   -4.3860    0.0000 C   0  0
    1.1545   -5.0572    0.0000 C   0  0
    4.0896   -5.2132    0.0000 S   0  0
    4.8034   -4.7996    0.0000 C   0  0
    2.6544   -2.7372    0.0000 N   0  0
    3.3679   -2.3231    0.0000 C   0  0
    5.5151   -5.2114    0.0000 C   0  0
    6.2285   -4.7985    0.0000 C   0  0
    6.2276   -3.9725    0.0000 C   0  0
    5.5075   -3.5614    0.0000 C   0  0
    4.7971   -3.9767    0.0000 C   0  0
    4.1201   -2.6582    0.0000 C   0  0
    4.6708   -2.0439    0.0000 C   0  0
    4.2567   -1.3304    0.0000 N   0  0
    3.4502   -1.5038    0.0000 N   0  0
    5.4915   -2.1284    0.0000 C   0  0
    6.9409   -3.5580    0.0000 N   0  0
    7.6565   -3.9684    0.0000 C   0  0
    8.3698   -3.5539    0.0000 C   0  0
    9.0855   -3.9643    0.0000 N   0  0
    7.6589   -4.7934    0.0000 O   0  0
    9.1712   -4.7823    0.0000 C   0  0
    9.9787   -4.9515    0.0000 C   0  0  1  0  0  0
   10.3891   -4.2357    0.0000 C   0  0
    9.8353   -3.6244    0.0000 C   0  0
   10.3164   -5.7042    0.0000 O   0  0
    9.8334   -6.3730    0.0000 C   0  0
   10.1711   -7.1257    0.0000 C   0  0
    9.0127   -6.2891    0.0000 C   0  0
    9.4165   -7.0833    0.0000 C   0  0
  5  1  1  0
  1  2  2  0
  2  3  1  0
  3  4  2  0
  4  6  1  0
  5  6  1  0
  6  7  2  0
  7  8  1  0
  8  9  2  0
  9  5  1  0
  2 10  1  0
 10 11  1  0
  4 12  1  0
 12 13  1  0
 11 14  2  0
 14 15  1  0
 15 16  2  0
 16 17  1  0
 17 18  2  0
 18 11  1  0
 13 19  1  0
 19 20  2  0
 20 21  1  0
 21 22  1  0
 22 13  2  0
 20 23  1  0
 16 24  1  0
 24 25  1  0
 25 26  1  0
 26 27  1  0
 25 28  2  0
 27 29  1  0
 29 30  1  0
 30 31  1  0
 31 32  1  0
 32 27  1  0
 30 33  1  1
 33 34  1  0
 34 35  1  0
 34 36  1  0
 34 37  1  0
M  END