
  CDK    9/16/09,10:4

 34 37  0  0  0  0  0  0  0  0999 V2000
    0.0585   -2.6897    0.0000 C   0  0  0  0  0  0  0  0  0  0  0  0
    0.8879   -2.6708    0.0000 C   0  0  0  0  0  0  0  0  0  0  0  0
    1.2840   -1.9471    0.0000 C   0  0  0  0  0  0  0  0  0  0  0  0
    0.8552   -1.2376    0.0000 C   0  0  0  0  0  0  0  0  0  0  0  0
    0.0258   -1.2565    0.0000 C   0  0  0  0  0  0  0  0  0  0  0  0
   -0.3748   -1.9849    0.0000 N   0  0  0  0  0  0  0  0  0  0  0  0
    0.2607   -2.3091    0.0000 C   0  0  0  0  0  0  0  0  0  0  0  0
    0.5841   -1.6141    0.0000 C   0  0  0  0  0  0  0  0  0  0  0  0
   -1.1993   -2.0124    0.0000 C   0  0  0  0  0  0  0  0  0  0  0  0
    2.1090   -1.9369    0.0000 C   0  0  0  0  0  0  0  0  0  0  0  0
    2.9339   -1.9227    0.0000 C   0  0  0  0  0  0  0  0  0  0  0  0
    2.1212   -2.7618    0.0000 O   0  0  0  0  0  0  0  0  0  0  0  0
    2.0968   -1.1120    0.0000 C   0  0  0  0  0  0  0  0  0  0  0  0
    2.8059   -0.6918    0.0000 C   0  0  0  0  0  0  0  0  0  0  0  0
    2.7940    0.1324    0.0000 C   0  0  0  0  0  0  0  0  0  0  0  0
    2.0729    0.5351    0.0000 C   0  0  0  0  0  0  0  0  0  0  0  0
    1.3623    0.1077    0.0000 C   0  0  0  0  0  0  0  0  0  0  0  0
    1.3777   -0.7151    0.0000 C   0  0  0  0  0  0  0  0  0  0  0  0
    3.3569   -2.6323    0.0000 C   0  0  0  0  0  0  0  0  0  0  0  0
    4.1810   -2.6184    0.0000 C   0  0  0  0  0  0  0  0  0  0  0  0
    4.5818   -1.8964    0.0000 C   0  0  0  0  0  0  0  0  0  0  0  0
    4.1526   -1.1868    0.0000 C   0  0  0  0  0  0  0  0  0  0  0  0
    3.3299   -1.2042    0.0000 C   0  0  0  0  0  0  0  0  0  0  0  0
   -1.6354   -1.3121    0.0000 C   0  0  0  0  0  0  0  0  0  0  0  0
   -2.4599   -1.3395    0.0000 O   0  0  0  0  0  0  0  0  0  0  0  0
   -2.8960   -0.6392    0.0000 C   0  0  0  0  0  0  0  0  0  0  0  0
   -3.7205   -0.6666    0.0000 C   0  0  0  0  0  0  0  0  0  0  0  0
   -4.1529    0.0351    0.0000 C   0  0  0  0  0  0  0  0  0  0  0  0
   -4.9767    0.0080    0.0000 C   0  0  0  0  0  0  0  0  0  0  0  0
   -5.3660   -0.7204    0.0000 C   0  0  0  0  0  0  0  0  0  0  0  0
   -4.9255   -1.4230    0.0000 C   0  0  0  0  0  0  0  0  0  0  0  0
   -4.1031   -1.3924    0.0000 C   0  0  0  0  0  0  0  0  0  0  0  0
   -5.3113   -2.1520    0.0000 C   0  0  0  0  0  0  0  0  0  0  0  0
   -0.6234    1.3062    0.0000 Br  0  0  0  0  0  0  0  0  0  0  0  0
 15 16  2  0  0  0  0 
 16 17  1  0  0  0  0 
  7  8  1  0  0  0  0 
 17 18  2  0  0  0  0 
 18 13  1  0  0  0  0 
  3  8  1  0  0  0  0 
 11 19  2  0  0  0  0 
  1  2  1  0  0  0  0 
 19 20  1  0  0  0  0 
  6  9  1  0  0  0  0 
 20 21  2  0  0  0  0 
  1  6  1  0  0  0  0 
 21 22  1  0  0  0  0 
  3 10  1  0  0  0  0 
 22 23  2  0  0  0  0 
 23 11  1  0  0  0  0 
  2  3  1  0  0  0  0 
  9 24  1  0  0  0  0 
 10 11  1  0  0  0  0 
 24 25  1  0  0  0  0 
  3  4  1  0  0  0  0 
 25 26  1  0  0  0  0 
 10 12  1  0  0  0  0 
 26 27  1  0  0  0  0 
  4  5  1  0  0  0  0 
 27 28  2  0  0  0  0 
 10 13  1  0  0  0  0 
 28 29  1  0  0  0  0 
  5  6  1  0  0  0  0 
 29 30  2  0  0  0  0 
 13 14  2  0  0  0  0 
 30 31  1  0  0  0  0 
 31 32  2  0  0  0  0 
 32 27  1  0  0  0  0 
 14 15  1  0  0  0  0 
 31 33  1  0  0  0  0 
  6  7  1  0  0  0  0 
M  CHG  1   6   1
M  CHG  1  34  -1
M  END