
  SciTegic05071317012D

 21 23  0  0  0  0            999 V2000
   24.8418  -16.6203    0.0000 O   0  0
   25.2545  -17.3302    0.0000 S   0  0
   25.6629  -16.6179    0.0000 O   0  0
   23.8457  -18.9687    0.0000 C   0  0
   23.8446  -19.7882    0.0000 C   0  0
   24.5526  -20.1972    0.0000 C   0  0
   24.5508  -18.5598    0.0000 C   0  0
   25.2594  -18.9651    0.0000 C   0  0
   25.2583  -19.7903    0.0000 C   0  0
   25.9684  -20.2016    0.0000 C   0  0  1  0  0  0
   26.6842  -19.7923    0.0000 C   0  0
   26.6854  -18.9672    0.0000 C   0  0
   25.9707  -18.5513    0.0000 C   0  0
   25.9668  -21.0167    0.0000 C   0  0
   25.3043  -21.4952    0.0000 N   0  0
   25.5547  -22.2731    0.0000 C   0  0
   26.3719  -22.2754    0.0000 N   0  0
   26.6265  -21.4989    0.0000 C   0  0
   24.5484  -17.7427    0.0000 N   0  0
   25.9638  -17.7384    0.0000 C   0  0
   26.6709  -17.3289    0.0000 C   0  0
  2  1  2  0
  3  2  2  0
  4  5  2  0
  5  6  1  0
  6  9  2  0
  8  7  2  0
  7  4  1  0
  8  9  1  0
  8 13  1  0
  9 10  1  0
 10 11  1  0
 11 12  1  0
 12 13  1  0
 14 15  1  0
 15 16  2  0
 16 17  1  0
 17 18  1  0
 18 14  2  0
 10 14  1  1
  7 19  1  0
 19  2  1  0
  2 20  1  0
 20 21  1  0
M  END