
  SciTegic01091216402D

 23 24  0  0  0  0            999 V2000
    5.8097   -5.9506    0.0000 N   0  0
    5.8200   -6.7734    0.0000 N   0  0
    6.6057   -7.0222    0.0000 C   0  0
    7.0848   -6.3492    0.0000 C   0  0
    6.5929   -5.6868    0.0000 C   0  0
    5.0982   -5.5379    0.0000 C   0  0
    4.3823   -5.9504    0.0000 N   0  0
    5.0982   -4.7130    0.0000 N   0  0
    7.9072   -6.3430    0.0000 C   0  0
    8.3260   -7.0517    0.0000 C   0  0
    5.8098   -4.3005    0.0000 C   0  0
    6.5257   -4.7130    0.0000 C   0  0
    3.6666   -5.5379    0.0000 S   0  0
    4.0791   -4.8221    0.0000 O   0  0
    2.2073   -7.0938    0.0000 N   0  0
    1.7243   -6.4237    0.0000 N   0  0
    2.2126   -5.7597    0.0000 C   0  0
    2.9970   -6.0203    0.0000 C   0  0
    2.9927   -6.8412    0.0000 C   0  0
    1.9600   -4.9744    0.0000 C   0  0
    1.9468   -7.8783    0.0000 C   0  0
    3.6567   -7.3296    0.0000 Cl  0  0
    3.0789   -4.9496    0.0000 O   0  0
  1  2  1  0
  2  3  2  0
  3  4  1  0
  4  5  1  0
  1  5  1  0
  6  7  2  0
  6  8  1  0
  1  6  1  0
  9 10  1  0
  4  9  1  0
 11 12  1  0
  8 11  1  0
 13 14  2  0
 15 16  1  0
 16 17  2  0
 17 18  1  0
 18 19  2  0
 15 19  1  0
 13 18  1  0
 17 20  1  0
 15 21  1  0
 19 22  1  0
  7 13  1  0
 13 23  2  0
M  END