
  CDK    9/16/09,9:51

 29 32  0  0  0  0  0  0  0  0999 V2000
   -3.2801   -8.7441    0.0000 C   0  0  0  0  0  0  0  0  0  0  0  0
   -3.6736   -9.4743    0.0000 N   0  0  0  0  0  0  0  0  0  0  0  0
   -3.2402  -10.1764    0.0000 C   0  0  0  0  0  0  0  0  0  0  0  0
   -2.4115  -10.1543    0.0000 C   0  0  0  0  0  0  0  0  0  0  0  0
   -2.0181   -9.4240    0.0000 N   0  0  0  0  0  0  0  0  0  0  0  0
   -2.4532   -8.7157    0.0000 C   0  0  0  0  0  0  0  0  0  0  0  0
   -1.1934   -9.4005    0.0000 C   0  0  0  0  0  0  0  0  0  0  0  0
   -0.7608  -10.1030    0.0000 C   0  0  0  0  0  0  0  0  0  0  0  0
   -1.0778  -10.8644    0.0000 C   0  0  0  0  0  0  0  0  0  0  0  0
   -0.4492  -11.3988    0.0000 S   0  0  0  0  0  0  0  0  0  0  0  0
    0.2532  -10.9662    0.0000 C   0  0  0  0  0  0  0  0  0  0  0  0
    0.0587  -10.1645    0.0000 C   0  0  0  0  0  0  0  0  0  0  0  0
    0.5927   -9.5355    0.0000 C   0  0  0  0  0  0  0  0  0  0  0  0
    1.4043   -9.6833    0.0000 O   0  0  0  0  0  0  0  0  0  0  0  0
    0.3149   -8.7587    0.0000 C   0  0  0  0  0  0  0  0  0  0  0  0
    0.8481   -8.1330    0.0000 C   0  0  0  0  0  0  0  0  0  0  0  0
    0.5709   -7.3567    0.0000 C   0  0  0  0  0  0  0  0  0  0  0  0
   -0.2415   -7.2082    0.0000 C   0  0  0  0  0  0  0  0  0  0  0  0
   -0.7762   -7.8422    0.0000 C   0  0  0  0  0  0  0  0  0  0  0  0
   -0.4961   -8.6159    0.0000 C   0  0  0  0  0  0  0  0  0  0  0  0
   -0.5203   -6.4317    0.0000 Cl  0  0  0  0  0  0  0  0  0  0  0  0
    1.0162  -11.2801    0.0000 N   0  0  0  0  0  0  0  0  0  0  0  0
   -4.4981   -9.4987    0.0000 C   0  0  0  0  0  0  0  0  0  0  0  0
   -4.9315   -8.7966    0.0000 C   0  0  0  0  0  0  0  0  0  0  0  0
   -4.5376   -8.0716    0.0000 C   0  0  0  0  0  0  0  0  0  0  0  0
   -4.9704   -7.3701    0.0000 C   0  0  0  0  0  0  0  0  0  0  0  0
   -5.7958   -7.3940    0.0000 C   0  0  0  0  0  0  0  0  0  0  0  0
   -6.1869   -8.1253    0.0000 C   0  0  0  0  0  0  0  0  0  0  0  0
   -5.7519   -8.8238    0.0000 C   0  0  0  0  0  0  0  0  0  0  0  0
 13 14  2  0  0  0  0 
  5  7  1  0  0  0  0 
 13 15  1  0  0  0  0 
  1  2  1  0  0  0  0 
 15 16  2  0  0  0  0 
  7  8  1  0  0  0  0 
 16 17  1  0  0  0  0 
  8  9  2  0  0  0  0 
 17 18  2  0  0  0  0 
  1  6  1  0  0  0  0 
 18 19  1  0  0  0  0 
  2  3  1  0  0  0  0 
 19 20  2  0  0  0  0 
 20 15  1  0  0  0  0 
  3  4  1  0  0  0  0 
 18 21  1  0  0  0  0 
  4  5  1  0  0  0  0 
 11 22  1  0  0  0  0 
  9 10  1  0  0  0  0 
  2 23  1  0  0  0  0 
 10 11  1  0  0  0  0 
 23 24  1  0  0  0  0 
 11 12  2  0  0  0  0 
 24 25  2  0  0  0  0 
 12  8  1  0  0  0  0 
 25 26  1  0  0  0  0 
  5  6  1  0  0  0  0 
 26 27  2  0  0  0  0 
 12 13  1  0  0  0  0 
 27 28  1  0  0  0  0 
 28 29  2  0  0  0  0 
 29 24  1  0  0  0  0 
M  END