
  SciTegic04091414152D

 31 35  0  0  0  0            999 V2000
    4.9104   -7.6092    0.0000 C   0  0
    4.1939   -8.0110    0.0000 C   0  0  2  0  0  0
    4.1850   -8.8287    0.0000 C   0  0
    4.9100   -9.2249    0.0000 N   0  3
    5.6086   -8.8458    0.0000 C   0  0
    5.6192   -8.0219    0.0000 C   0  0
    4.3795   -8.2354    0.0000 C   0  0
    5.1268   -8.5749    0.0000 C   0  0
    3.4873   -7.5893    0.0000 O   0  0
    2.1382   -7.1409    0.0000 C   0  0
    1.5939   -7.7588    0.0000 C   0  0
    2.6854   -7.7557    0.0000 C   0  0
    1.3805   -6.8154    0.0000 C   0  0
    1.1499   -6.0248    0.0000 C   0  0
    1.6312   -5.3540    0.0000 C   0  0
    2.4493   -5.3200    0.0000 C   0  0
    2.9958   -5.9353    0.0000 C   0  0
    2.8567   -6.7472    0.0000 C   0  0
    0.7761   -7.6888    0.0000 C   0  0
    0.4535   -8.4474    0.0000 C   0  0
    1.0713   -8.9915    0.0000 C   0  0
    1.7798   -8.5666    0.0000 C   0  0
    2.4284   -8.5356    0.0000 O   0  0
    4.8014  -10.0390    0.0000 C   0  0
    5.4527  -10.5421    0.0000 C   0  0
    5.3442  -11.3562    0.0000 C   0  0
    4.5845  -11.6647    0.0000 C   0  0
    4.4757  -12.4780    0.0000 C   0  0
    5.1233  -12.9820    0.0000 C   0  0
    5.8861  -12.6629    0.0000 C   0  0
    5.9912  -11.8505    0.0000 C   0  0
  1  2  1  0
  1  6  1  0
  2  3  1  0
  3  4  1  0
  4  5  1  0
  5  6  1  0
  1  7  1  0
  4  8  1  0
  7  8  1  0
  2  9  1  6
 11 10  1  0
 10 12  1  0
 13 14  1  0
 14 15  1  0
 15 16  1  0
 13 10  1  0
 16 17  1  0
 10 18  1  0
 17 18  1  0
 11 19  2  0
 19 20  1  0
 20 21  2  0
 21 22  1  0
 22 11  1  0
 12 23  2  0
 12  9  1  0
  4 24  1  0
 24 25  1  0
 25 26  1  0
 26 27  2  0
 27 28  1  0
 28 29  2  0
 29 30  1  0
 30 31  2  0
 31 26  1  0
M  CHG  1   4   1
M  END