
          11280714492D 1   1.00000     0.00000     0

 16 16  0     0  0            999 V2000
    1.9875   -2.7250    0.0000 C   0  0  3  0  0  0           0  0  0
    2.5792   -2.7167    0.0000 C   0  0  0  0  0  0           0  0  0
    2.2792   -2.2000    0.0000 C   0  0  0  0  0  0           0  0  0
    1.4625   -3.0250    0.0000 C   0  0  0  0  0  0           0  0  0
    1.4625   -3.6250    0.0000 N   0  0  0  0  0  0           0  0  0
    4.3917   -4.0917    0.0000 N   0  0  0  0  0  0           0  0  0
    4.9167   -3.7917    0.0000 C   0  0  3  0  0  0           0  0  0
    2.3167   -4.0917    0.0000 O   0  0  0  0  0  0           0  0  0
    3.3542   -4.0917    0.0000 C   0  0  3  0  0  0           0  0  0
    3.8750   -3.7917    0.0000 C   0  0  0  0  0  0           0  0  0
    2.8375   -3.7917    0.0000 C   0  0  0  0  0  0           0  0  0
    3.3542   -4.6917    0.0000 O   0  0  0  0  0  0           0  0  0
    0.9417   -2.7250    0.0000 C   0  0  0  0  0  0           0  0  0
    5.4292   -3.4917    0.0000 C   0  0  0  0  0  0           0  0  0
    5.4292   -4.0917    0.0000 C   0  0  0  0  0  0           0  0  0
    4.9167   -3.1917    0.0000 C   0  0  0  0  0  0           0  0  0
  2  1  1  0     0  0
  3  1  1  0     0  0
  4  1  1  0     0  0
  5  4  2  0     0  0
  6 10  1  0     0  0
  7  6  1  0     0  0
  8  5  1  0     0  0
  9 11  1  0     0  0
 10  9  1  0     0  0
 11  8  1  0     0  0
 12  9  1  0     0  0
 13  4  1  0     0  0
 14  7  1  0     0  0
 15  7  1  0     0  0
 16  7  1  0     0  0
  2  3  1  0     0  0
M  END