
          11280715362D 1   1.00000     0.00000     0

 24 27  0     0  0            999 V2000
    3.3750   -7.8125    0.0000 C   0  0  0  0  0  0           0  0  0
    4.0917   -7.3875    0.0000 C   0  0  0  0  0  0           0  0  0
    3.3875   -8.6292    0.0000 C   0  0  0  0  0  0           0  0  0
    8.5042   -6.8375    0.0000 N   0  0  3  0  0  0           0  0  0
    9.2792   -6.5667    0.0000 C   0  0  0  0  0  0           0  0  0
    2.6042   -8.8917    0.0000 S   0  0  0  0  0  0           0  0  0
    6.9542   -7.3750    0.0000 N   0  0  3  0  0  0           0  0  0
    2.5917   -7.5667    0.0000 C   0  0  0  0  0  0           0  0  0
    2.1125   -8.2375    0.0000 C   0  0  0  0  0  0           0  0  0
    4.8125   -7.7917    0.0000 C   0  0  3  0  0  0           0  0  0
    9.9042   -7.1042    0.0000 N   0  0  0  0  0  0           0  0  0
    4.0875   -6.5625    0.0000 O   0  0  0  0  0  0           0  0  0
    8.3500   -7.6417    0.0000 C   0  0  0  0  0  0           0  0  0
    7.8792   -6.2917    0.0000 C   0  0  0  0  0  0           0  0  0
    4.1042   -9.0417    0.0000 C   0  0  0  0  0  0           0  0  0
    4.8167   -8.6250    0.0000 C   0  0  0  0  0  0           0  0  0
    5.5250   -7.3792    0.0000 C   0  0  0  0  0  0           0  0  0
    6.2417   -7.7875    0.0000 C   0  0  0  0  0  0           0  0  0
    7.5750   -7.9167    0.0000 C   0  0  0  0  0  0           0  0  0
    7.1000   -6.5667    0.0000 C   0  0  0  0  0  0           0  0  0
    9.4375   -5.7542    0.0000 C   0  0  0  0  0  0           0  0  0
   10.6875   -6.8375    0.0000 C   0  0  0  0  0  0           0  0  0
   10.2042   -5.4875    0.0000 C   0  0  0  0  0  0           0  0  0
   10.8417   -6.0250    0.0000 C   0  0  0  0  0  0           0  0  0
  2  1  1  0     0  0
  3  1  2  0     0  0
  4 14  1  0     0  0
  5  4  1  0     0  0
  6  3  1  0     0  0
  7 18  1  0     0  0
  8  1  1  0     0  0
  9  8  2  0     0  0
 10  2  1  0     0  0
 11  5  2  0     0  0
 12  2  2  0     0  0
 13 19  1  0     0  0
 14 20  1  0     0  0
 15  3  1  0     0  0
 16 15  1  0     0  0
 17 10  1  0     0  0
 18 17  1  0     0  0
 19  7  1  0     0  0
 20  7  1  0     0  0
 21  5  1  0     0  0
 22 11  1  0     0  0
 23 21  2  0     0  0
 24 23  1  0     0  0
  6  9  1  0     0  0
 10 16  1  0     0  0
  4 13  1  0     0  0
 24 22  2  0     0  0
M  END