
  SciTegic11201309402D

108116  0  0  0  0            999 V2000
   -1.3283    1.1987    0.0000 C   0  0
   -2.1153   -0.2569    0.0000 O   0  0
   12.2652   -0.2254    0.0000 C   0  0
   13.0902   -0.2288    0.0000 N   0  0
   11.8498   -0.9382    0.0000 O   0  0
   13.4998   -0.9449    0.0000 C   0  0  2  0  0  0
   14.3248   -0.9483    0.0000 C   0  0
   13.0844   -1.6577    0.0000 C   0  0  1  0  0  0
   12.2594   -1.6544    0.0000 C   0  0
   13.4940   -2.3739    0.0000 O   0  0
   14.7344   -1.6645    0.0000 N   0  0
   14.7402   -0.2355    0.0000 O   0  0
   11.0357    0.4950    0.0000 N   0  0
   11.8561    0.4905    0.0000 C   0  0  1  0  0  0
   12.1137    1.2695    0.0000 C   0  0
   11.4523    1.7552    0.0000 C   0  0
   10.7862    1.2763    0.0000 C   0  0
   15.5594   -1.6678    0.0000 C   0  0  2  0  0  0
   15.9689   -2.3840    0.0000 C   0  0
   15.9748   -0.9550    0.0000 C   0  0
   15.5535   -3.0967    0.0000 O   0  0
   16.7915   -2.3872    0.0000 N   0  0
   16.7841   -3.2110    0.0000 C   0  0
   17.5650   -3.4772    0.0000 C   0  0
   18.0595   -2.8168    0.0000 C   0  0
   17.5846   -2.1409    0.0000 C   0  0  1  0  0  0
   17.9737   -1.4135    0.0000 C   0  0
   18.7976   -1.3869    0.0000 N   0  0
   17.5383   -0.7127    0.0000 O   0  0
   19.0770   -2.1624    0.0000 C   0  0
   19.9017   -2.1384    0.0000 C   0  0
   20.1337   -1.3467    0.0000 C   0  0
   19.4527   -0.8802    0.0000 C   0  0  1  0  0  0
   19.1627   -0.1079    0.0000 C   0  0
   19.6851    0.5380    0.0000 N   0  0
   18.3488    0.0270    0.0000 O   0  0
   12.4998   -0.9409    0.0000 H   0  0
   10.6260   -0.2211    0.0000 C   0  0
    9.8010   -0.2243    0.0000 C   0  0  1  0  0  0
   11.0413   -0.9340    0.0000 O   0  0
    9.3857    0.4885    0.0000 N   0  0
    9.3913   -0.9404    0.0000 C   0  0
   19.2823    1.2579    0.0000 C   0  0  2  0  0  0
   18.4574    1.2694    0.0000 C   0  0
   19.7039    1.9663    0.0000 C   0  0
   20.5288    1.9804    0.0000 C   0  0
   20.9533    1.2730    0.0000 C   0  0
   20.5546    0.5506    0.0000 O   0  0
   21.7798    1.2860    0.0000 O   0  0
   18.0546    1.9895    0.0000 N   0  0
   18.0349    0.5608    0.0000 O   0  0
   18.3745    2.7510    0.0000 C   0  0
   19.1934    2.8513    0.0000 C   0  0
   19.5160    3.6107    0.0000 N   0  0
   19.6897    2.1923    0.0000 O   0  0
    9.8066   -1.6533    0.0000 C   0  0
    8.5607    0.4853    0.0000 C   0  0
    8.1455    1.1982    0.0000 C   0  0
    8.1510   -0.2308    0.0000 O   0  0
    6.5991    1.5975    0.0000 C   0  0
    5.8916    1.1731    0.0000 C   0  0
    6.5853    2.4224    0.0000 O   0  0
    5.1704    1.5736    0.0000 C   0  0
    4.4629    1.1492    0.0000 C   0  0
    3.7416    1.5497    0.0000 C   0  0
    3.0341    1.1253    0.0000 N   0  0
    2.3129    1.5257    0.0000 C   0  0
    1.6054    1.1013    0.0000 N   0  0
    2.2991    2.3506    0.0000 S   0  0
    0.8841    1.5018    0.0000 C   0  0
    0.8756    2.3243    0.0000 C   0  0
    0.1551    2.7247    0.0000 C   0  0
    0.1842    1.0745    0.0000 C   0  0
   -0.5368    1.4711    0.0000 C   0  0
   -0.5526    2.3049    0.0000 C   0  0
   -1.3504    2.5475    0.0000 C   0  0
   -1.8278    1.8637    0.0000 O   0  0
   -1.6202    3.3272    0.0000 O   0  0
   -0.8911    0.4973    0.0000 C   0  0
   -1.2892   -0.2306    0.0000 C   0  0
   -0.8580   -0.9371    0.0000 C   0  0
   -0.0289   -0.9170    0.0000 C   0  0
    0.3671   -0.1844    0.0000 C   0  0
   -0.0663    0.5191    0.0000 C   0  0
   -2.5481    0.4492    0.0000 C   0  0
   -2.1554    1.1718    0.0000 C   0  0
   -2.5848    1.8711    0.0000 C   0  0
   -3.4067    1.8489    0.0000 C   0  0
   -3.7973    1.1216    0.0000 C   0  0
   -3.3657    0.4254    0.0000 C   0  0
    0.4021   -1.6204    0.0000 O   0  0
   -4.6219    1.0960    0.0000 O   0  0
    9.3969   -2.3693    0.0000 C   0  0
    8.5701   -2.3737    0.0000 O   0  0
    9.8104   -3.0833    0.0000 O   0  0
   12.4750    2.7334    0.0000 C   0  0
   17.2296    1.9942    0.0000 C   0  0
   16.8212    2.7110    0.0000 C   0  0
   15.9962    2.7157    0.0000 C   0  0
   15.5797    2.0036    0.0000 C   0  0
   14.7547    2.0083    0.0000 C   0  0
   14.3449    2.7252    0.0000 C   0  0
    7.3198    1.1938    0.0000 N   0  0
   13.5199    2.7287    0.0000 C   0  0
    8.5375    2.7375    0.0000 C   0  0
   20.2398   -0.2634    0.0000 H   0  0
   18.5828   -2.0803    0.0000 H   0  0
   12.8511    0.5902    0.0000 H   0  0
  7 11  1  0
 44 51  2  0
  1 79  1  0
 50 52  1  0
 23 24  1  0
 52 53  1  0
 24 25  1  0
 53 54  1  0
 25 26  1  0
 53 55  2  0
 26 22  1  0
 42 56  1  0
  7 12  2  0
 41 57  1  0
 26 27  1  0
 57 58  1  0
 13 14  1  0
 57 59  2  0
 58103  1  0
 27 28  1  0
103 60  1  0
  3  5  2  0
 60 61  1  0
 27 29  2  0
 60 62  2  0
 28 30  1  0
 61 63  1  0
 85  2  1  0
 63 64  1  0
  4  6  1  0
 64 65  1  0
  2 80  1  0
 65 66  1  0
  6  7  1  0
 66 67  1  0
 30 31  1  0
 67 68  1  0
 31 32  1  0
 67 69  2  0
 32 33  1  0
 68 70  1  0
 33 28  1  0
 70 71  2  0
 14 15  1  0
 71 72  1  0
 72 75  2  0
 33 34  1  0
 74 73  2  0
 73 70  1  0
 74 75  1  0
 15 16  1  0
 34 35  1  0
 16 17  1  0
 34 36  2  0
 75 76  1  0
 76 77  1  0
 77  1  1  0
  1 74  1  0
 17 13  1  0
 76 78  2  0
  6 37  1  1
 79 80  2  0
 13 38  1  0
 80 81  1  0
 11 18  1  0
 81 82  2  0
 38 39  1  0
 82 83  1  0
  6  8  1  0
 83 84  2  0
 84 79  1  0
 38 40  2  0
 18 19  1  0
 85 86  2  0
 39 41  1  0
 86 87  1  0
 14  3  1  0
 87 88  2  0
 39 42  1  6
 88 89  1  0
 18 20  1  1
 89 90  2  0
 90 85  1  0
 35 43  1  0
 82 91  1  0
  8  9  1  6
 89 92  1  0
 43 44  1  0
 56 93  1  0
 19 21  2  0
 43 45  1  6
 93 94  1  0
 93 95  2  0
  1 86  1  0
 45 46  1  0
 50 97  1  0
 19 22  1  0
 97 98  1  0
 46 47  1  0
 98 99  1  0
 22 23  1  0
 99100  1  0
  8 10  1  0
100101  1  0
 47 48  1  0
101102  1  0
 47 49  2  0
  3  4  1  0
102104  1  0
 96104  2  3
 44 50  1  0
103105  1  0
105 96  1  0
 33106  1  1
 26107  1  1
 14108  1  6
M  END