
  Mrv0541 04051115152D          

 11 12  0  0  0  0            999 V2000
    0.5966    0.4093    0.0000 C   0  0  0  0  0  0  0  0  0  0  0  0
    0.5966   -0.4157    0.0000 C   0  0  0  0  0  0  0  0  0  0  0  0
    1.8661   -0.0032    0.0000 C   0  0  0  0  0  0  0  0  0  0  0  0
   -0.6730   -0.0032    0.0000 C   0  0  0  0  0  0  0  0  0  0  0  0
   -1.4980   -0.0032    0.0000 C   0  0  0  0  0  0  0  0  0  0  0  0
   -1.9105   -0.7177    0.0000 O   0  0  0  0  0  0  0  0  0  0  0  0
   -1.9105    0.7113    0.0000 O   0  0  0  0  0  0  0  0  0  0  0  0
   -0.1881   -0.6707    0.0000 N   0  0  0  0  0  0  0  0  0  0  0  0
   -0.1881    0.6642    0.0000 C   0  0  0  0  0  0  0  0  0  0  0  0
    1.3812    0.6642    0.0000 O   0  0  0  0  0  0  0  0  0  0  0  0
    1.3812   -0.6707    0.0000 C   0  0  0  0  0  0  0  0  0  0  0  0
  1  9  1  0  0  0  0
  1 10  1  0  0  0  0
  1  2  2  0  0  0  0
  2  8  1  0  0  0  0
  2 11  1  0  0  0  0
  3 10  1  0  0  0  0
 11  3  2  0  0  0  0
  4  5  1  0  0  0  0
  9  4  2  0  0  0  0
  4  8  1  0  0  0  0
  5  6  2  0  0  0  0
  5  7  1  0  0  0  0
M  END