
  SciTegic10311217562D

 49 46  0  0  0  0            999 V2000
    0.9904   -3.3417    0.0000 C   0  0
    1.7061   -2.9313    0.0000 C   0  0
    2.4194   -3.3459    0.0000 N   0  0
    3.1350   -2.9355    0.0000 C   0  0
    3.8483   -3.3501    0.0000 C   0  0
    3.1375   -2.1105    0.0000 O   0  0
    4.5640   -2.9397    0.0000 N   0  0
    5.2772   -3.3543    0.0000 C   0  0
    5.9929   -2.9439    0.0000 O   0  0
    5.2748   -4.1793    0.0000 C   0  0
    2.4244    0.7708    0.0000 S   0  0
    3.1389    0.3583    0.0000 O   0  5
    2.0043    1.4874    0.0000 O   0  0
    2.8293    1.4874    0.0000 O   0  0
   -0.4334   -0.8750    0.0000 C   0  0  2  0  0  0
   -0.4334   -1.7000    0.0000 C   0  0  1  0  0  0
    0.2787   -2.1084    0.0000 C   0  0  2  0  0  0
    0.9907   -1.7000    0.0000 O   0  0
    0.9907   -0.8750    0.0000 C   0  0  1  0  0  0
    0.2787   -0.4584    0.0000 C   0  0  1  0  0  0
   -1.1490   -0.4646    0.0000 O   0  0
   -1.1472   -2.1136    0.0000 O   0  0
    0.2787    0.3666    0.0000 O   0  0
    0.2787   -2.9334    0.0000 O   0  0
   -0.4358    0.7791    0.0000 S   0  0
   -1.1503    0.3666    0.0000 O   0  5
   -0.8542    1.4958    0.0000 O   0  0
   -0.0292    1.4958    0.0000 O   0  0
   -1.8623   -0.8792    0.0000 S   0  0
   -2.5780   -0.4688    0.0000 O   0  5
   -2.2792   -1.5917    0.0000 O   0  0
   -1.4542   -1.5917    0.0000 O   0  0
   -1.1460   -2.9386    0.0000 S   0  0
   -1.8599   -3.3521    0.0000 O   0  5
   -0.3250   -2.9375    0.0000 O   0  0
   -0.7417   -3.6500    0.0000 O   0  0
    1.7063   -0.4646    0.0000 C   0  0
    1.7088    0.3604    0.0000 O   0  0
    5.9881   -4.5939    0.0000 C   0  0
    5.9823   -5.4178    0.0000 C   0  0
    6.6947   -5.8323    0.0000 C   0  0
    7.4114   -5.4218    0.0000 C   0  0
    7.4111   -4.5925    0.0000 C   0  0
    6.6981   -4.1818    0.0000 C   0  0
    8.1254   -4.1796    0.0000 Cl  0  0
    5.0875    1.0667    0.0000 Na  0  3
   -2.9083    1.3792    0.0000 Na  0  3
   -3.6542   -0.3375    0.0000 Na  0  3
   -3.1875   -3.0542    0.0000 Na  0  3
  5  7  1  0
 23 25  1  0
 11 14  2  0
 25 26  1  0
  3  4  1  0
 25 27  2  0
 15 16  1  0
 25 28  2  0
  7  8  1  0
 21 29  1  0
 29 30  1  0
  8  9  2  0
 29 31  2  0
  4  5  1  0
 29 32  2  0
  8 10  1  0
  2  3  1  0
 22 33  1  0
 15 20  1  0
 33 34  1  0
 16 17  1  0
 33 35  2  0
 17 18  1  0
 33 36  2  0
 18 19  1  0
 19 20  1  0
 19 37  1  1
  4  6  2  0
 37 38  1  0
 38 11  1  0
 24  1  1  0
 15 21  1  1
 10 39  1  0
 11 12  1  0
 39 40  2  0
 16 22  1  1
 40 41  1  0
  1  2  1  0
 41 42  2  0
 20 23  1  6
 42 43  1  0
 11 13  2  0
 43 44  2  0
 44 39  1  0
 17 24  1  6
 43 45  1  0
M  CHG  8  12  -1  26  -1  30  -1  34  -1  46   1  47   1  48   1  49   1
M  END