
          11280715422D 1   1.00000     0.00000     0

 30 33  0     0  0            999 V2000
    0.1542    0.7625    0.0000 C   0  0  0  0  0  0           0  0  0
   -0.8333   -0.1292    0.0000 C   0  0  0  0  0  0           0  0  0
   -0.6625    0.6708    0.0000 N   0  0  0  0  0  0           0  0  0
   -0.1208   -0.5500    0.0000 N   0  0  3  0  0  0           0  0  0
    0.4917    0.0083    0.0000 C   0  0  0  0  0  0           0  0  0
    0.5750    1.4708    0.0000 C   0  0  0  0  0  0           0  0  0
   -1.5625   -0.2167    0.0000 C   0  0  0  0  0  0           0  0  0
   -1.9708    0.5000    0.0000 C   0  0  0  0  0  0           0  0  0
    1.4000    1.4708    0.0000 N   0  0  0  0  0  0           0  0  0
    2.1917    1.6875    0.0000 N   0  0  3  0  0  0           0  0  0
   -0.1208   -1.3750    0.0000 C   0  0  0  0  0  0           0  0  0
   -1.9708   -0.9292    0.0000 C   0  0  0  0  0  0           0  0  0
   -2.7958    0.5000    0.0000 C   0  0  0  0  0  0           0  0  0
    0.5375    2.3000    0.0000 O   0  0  0  0  0  0           0  0  0
    3.7875    2.1208    0.0000 O   0  0  0  0  0  0           0  0  0
    0.5792   -1.7792    0.0000 C   0  0  0  0  0  0           0  0  0
   -0.8458   -1.7750    0.0000 C   0  0  0  0  0  0           0  0  0
   -3.2083   -0.2125    0.0000 C   0  0  0  0  0  0           0  0  0
   -1.5625    1.2125    0.0000 Cl  0  0  0  0  0  0           0  0  0
    1.3042   -0.1542    0.0000 C   0  0  0  0  0  0           0  0  0
    2.4000    2.5000    0.0000 C   0  0  0  0  0  0           0  0  0
    2.7792    1.1083    0.0000 C   0  0  0  0  0  0           0  0  0
   -2.7958   -0.9292    0.0000 C   0  0  0  0  0  0           0  0  0
   -0.1458   -3.0125    0.0000 C   0  0  0  0  0  0           0  0  0
    0.5792   -2.6000    0.0000 C   0  0  0  0  0  0           0  0  0
   -0.8458   -2.5917    0.0000 C   0  0  0  0  0  0           0  0  0
   -4.0333   -0.2000    0.0000 Cl  0  0  0  0  0  0           0  0  0
   -0.1458   -3.8375    0.0000 Cl  0  0  0  0  0  0           0  0  0
    3.2000    2.7083    0.0000 C   0  0  0  0  0  0           0  0  0
    3.5667    1.3208    0.0000 C   0  0  0  0  0  0           0  0  0
  2  3  2  0     0  0
  3  1  1  0     0  0
  4  5  1  0     0  0
  5  1  2  0     0  0
  6  1  1  0     0  0
  7  2  1  0     0  0
  8  7  2  0     0  0
  9  6  1  0     0  0
 10  9  1  0     0  0
 11  4  1  0     0  0
 12  7  1  0     0  0
 13  8  1  0     0  0
 14  6  2  0     0  0
 15 30  1  0     0  0
 16 11  1  0     0  0
 17 11  2  0     0  0
 18 23  1  0     0  0
 19  8  1  0     0  0
 20  5  1  0     0  0
 21 10  1  0     0  0
 22 10  1  0     0  0
 23 12  2  0     0  0
 24 26  2  0     0  0
 25 16  2  0     0  0
 26 17  1  0     0  0
 27 18  1  0     0  0
 28 24  1  0     0  0
 29 21  1  0     0  0
 30 22  1  0     0  0
  4  2  1  0     0  0
 15 29  1  0     0  0
 24 25  1  0     0  0
 18 13  2  0     0  0
M  END