
  SciTegic04071410272D

 32 34  0  0  0  0            999 V2000
   10.4668   -6.1145    0.0000 C   0  0  1  0  0  0
   11.5517   -6.9247    0.0000 C   0  0  2  0  0  0
   11.0271   -6.4922    0.0000 C   0  0
   10.0413   -6.4922    0.0000 C   0  0  1  0  0  0
    9.9015   -5.6677    0.0000 N   0  3
   11.4091   -6.0963    0.0000 C   0  0
    9.5132   -7.2123    0.0000 C   0  0
   10.1453   -6.8313    0.0000 C   0  0
   11.9660   -7.6382    0.0000 C   0  0
   12.7910   -7.6363    0.0000 C   0  0
   13.2052   -8.3499    0.0000 C   0  0
   13.0011   -6.8339    0.0000 C   0  0
   13.2111   -6.0315    0.0000 N   0  0
   13.5844   -7.4173    0.0000 C   0  0
   12.7931   -9.0620    0.0000 C   0  0
   13.2066   -9.7751    0.0000 C   0  0
   14.0325   -9.7736    0.0000 C   0  0
   14.4433   -9.0531    0.0000 C   0  0
   14.0273   -8.3430    0.0000 C   0  0
   14.1697   -7.9977    0.0000 C   0  0
   14.9625   -7.7791    0.0000 C   0  0
   15.1701   -6.9817    0.0000 C   0  0
   14.5789   -6.4030    0.0000 C   0  0
   13.7883   -6.6245    0.0000 C   0  0
    9.1007   -5.4504    0.0000 C   0  0
   10.3091   -4.9504    0.0000 C   0  0
    9.8918   -4.2386    0.0000 C   0  0
   10.2995   -3.5214    0.0000 O   0  0
    9.8822   -2.8096    0.0000 C   0  0
   11.6510   -4.9004    0.0000 Br  0  5
    9.2385   -6.3022    0.0000 H   0  0
   10.7300   -5.3326    0.0000 H   0  0
 10 14  1  0
  1  6  1  0
 11 15  2  0
  6  2  1  0
 15 16  1  0
  4  7  1  0
 16 17  2  0
  1  8  1  0
 17 18  1  0
  7  8  1  0
 18 19  2  0
 19 11  1  0
 14 20  2  0
  2  9  1  6
 20 21  1  0
 21 22  2  0
  9 10  1  0
 22 23  1  0
  2  3  1  0
 23 24  2  0
 24 14  1  0
 10 11  1  0
  5 25  1  0
  3  4  1  0
  5 26  1  0
 10 12  1  0
 26 27  1  0
  4  5  1  0
 27 28  1  0
 12 13  3  0
 28 29  1  0
  5  1  1  0
  4 31  1  1
  1 32  1  6
M  CHG  2   5   1  30  -1
M  END