
  SciTegic06281210282D

 30 33  0  0  0  0            999 V2000
   12.9583  -10.4542    0.0000 O   0  0
   12.9625  -11.2792    0.0000 S   0  0
   13.6749  -10.8631    0.0000 O   0  0
    9.6903  -12.4935    0.0000 C   0  0
    9.6903  -13.3185    0.0000 C   0  0
   10.4047  -13.7310    0.0000 C   0  0
   11.1192  -13.3185    0.0000 C   0  0
   11.1192  -12.4935    0.0000 C   0  0
   10.4047  -12.0810    0.0000 C   0  0
   11.9028  -13.5746    0.0000 N   0  0
   12.3887  -12.9060    0.0000 N   0  0
   11.9038  -12.2386    0.0000 C   0  0
   10.4047  -11.2560    0.0000 O   0  0
    9.6903  -10.8435    0.0000 C   0  0
   11.9041  -14.3996    0.0000 C   0  0
   11.1902  -14.8131    0.0000 C   0  0
   10.4752  -14.4018    0.0000 C   0  0
    9.7613  -14.8153    0.0000 C   0  0
    9.7626  -15.6403    0.0000 C   0  0
   10.4776  -16.0517    0.0000 C   0  0
   11.1915  -15.6381    0.0000 C   0  0
   12.1588  -11.4540    0.0000 N   0  0
   13.5178  -11.8956    0.0000 C   0  0
   13.3463  -12.7013    0.0000 C   0  0
   14.0607  -13.1138    0.0000 C   0  0
   14.6739  -12.5617    0.0000 C   0  0
   14.3382  -11.8081    0.0000 S   0  0
   15.4809  -12.7332    0.0000 Cl  0  0
   10.4788  -16.8767    0.0000 C   0  0
    9.8237  -17.3580    0.0000 N   0  0
 10 11  1  0
 11 12  2  0
 12  8  1  0
  9 13  1  0
 13 14  1  0
 10 15  1  0
 15 16  1  0
 16 17  2  0
 17 18  1  0
 18 19  2  0
 19 20  1  0
 20 21  2  0
 21 16  1  0
 12 22  1  0
 22  2  1  0
  2  1  2  0
  2 23  1  0
 23 24  2  0
  3  2  2  0
  4  5  2  0
  5  6  1  0
  6  7  2  0
 24 25  1  0
 25 26  2  0
 26 27  1  0
 27 23  1  0
  7  8  1  0
 26 28  1  0
  8  9  2  0
 20 29  1  0
  9  4  1  0
  7 10  1  0
 29 30  1  0
M  END