
  SciTegic10041313202D

 31 32  0  0  1  0            999 V2000
    4.4167   -2.9167    0.0000 C   0  0
    6.5625   -3.3417    0.0000 C   0  0
    5.1292   -3.3375    0.0000 N   0  0
    3.7042   -3.3292    0.0000 N   0  0
    5.8500   -2.9250    0.0000 C   0  0  1  0  0  0
    7.2792   -2.9375    0.0000 N   0  0
    9.5258   -2.4570    0.0000 N   0  0
    8.7042   -2.9375    0.0000 C   0  0
    4.4167   -2.0917    0.0000 O   0  0
    7.9792   -6.2042    0.0000 C   0  0
    6.5542   -4.1667    0.0000 O   0  0
    7.9917   -3.3542    0.0000 C   0  0  2  0  0  0
    5.8500   -2.1042    0.0000 C   0  0
    8.3917   -6.9167    0.0000 C   0  0
    2.2792   -4.1542    0.0000 O   0  0
    9.2167   -6.9167    0.0000 Cl  0  0
    7.9792   -4.7792    0.0000 O   0  0
    2.9917   -2.9167    0.0000 C   0  0
    3.7042   -4.1542    0.0000 C   0  0
    8.3917   -5.4917    0.0000 C   0  0
    8.4000   -4.0667    0.0000 C   0  0
    6.2542   -1.3875    0.0000 C   0  0
    7.1542   -6.2042    0.0000 C   0  0
    2.2792   -3.3292    0.0000 C   0  0
    2.9917   -4.5667    0.0000 C   0  0
    7.9792   -7.6292    0.0000 C   0  0
    7.0792   -1.3750    0.0000 C   0  0
    5.8375   -0.6750    0.0000 C   0  0
    6.7417   -6.9167    0.0000 C   0  0
    7.1542   -7.6292    0.0000 C   0  0
    7.4042   -3.9375    0.0000 H   0  0
  2  5  1  0
  3  1  1  0
  4  1  1  0
  5  3  1  0
  6  2  1  0
  7  8  3  0
  8 12  1  0
  9  1  2  0
 10 20  1  0
 11  2  2  0
 12  6  1  0
  5 13  1  1
 14 10  1  0
 15 25  1  0
 16 14  1  0
 17 21  1  0
 18  4  1  0
 19  4  1  0
 20 17  1  0
 12 21  1  6
 22 13  1  0
 23 10  2  0
 24 18  1  0
 25 19  1  0
 26 14  2  0
 27 22  1  0
 28 22  1  0
 29 23  1  0
 30 29  2  0
 12 31  1  1
 24 15  1  0
 26 30  1  0
M  END