
  -ISIS-  05251118302D

 31 35  0  0  0  0  0  0  0  0999 V2000
    8.6833   -3.2250    0.0000 C   0  0  2  0  0  0  0  0  0  0  0  0
    8.6833   -4.0542    0.0000 C   0  0  2  0  0  0  0  0  0  0  0  0
    7.9708   -4.4667    0.0000 C   0  0  1  0  0  0  0  0  0  0  0  0
    7.2583   -4.0542    0.0000 C   0  0  1  0  0  0  0  0  0  0  0  0
    6.5458   -4.4667    0.0000 C   0  0  0  0  0  0  0  0  0  0  0  0
    4.3958   -6.5667    0.0000 C   0  0  0  0  0  0  0  0  0  0  0  0
    6.5458   -5.2917    0.0000 C   0  0  0  0  0  0  0  0  0  0  0  0
    7.9708   -2.8125    0.0000 C   0  0  0  0  0  0  0  0  0  0  0  0
    7.2583   -3.2250    0.0000 C   0  0  0  0  0  0  0  0  0  0  0  0
    7.9708   -5.2917    0.0000 C   0  0  0  0  0  0  0  0  0  0  0  0
    9.4708   -4.3125    0.0000 C   0  0  0  0  0  0  0  0  0  0  0  0
    4.3958   -5.7292    0.0000 O   0  0  0  0  0  0  0  0  0  0  0  0
    5.8417   -4.0542    0.0000 C   0  0  0  0  0  0  0  0  0  0  0  0
    9.4708   -2.9667    0.0000 C   0  0  2  0  0  0  0  0  0  0  0  0
    5.8417   -5.7125    0.0000 C   0  0  0  0  0  0  0  0  0  0  0  0
    7.2583   -5.7125    0.0000 C   0  0  0  0  0  0  0  0  0  0  0  0
    5.1208   -5.2917    0.0000 C   0  0  0  0  0  0  0  0  0  0  0  0
    5.1083   -6.9792    0.0000 O   0  0  0  0  0  0  0  0  0  0  0  0
    3.6792   -6.9792    0.0000 C   0  0  0  0  0  0  0  0  0  0  0  0
    9.9458   -3.6292    0.0000 C   0  0  0  0  0  0  0  0  0  0  0  0
    5.1208   -4.4667    0.0000 C   0  0  0  0  0  0  0  0  0  0  0  0
    8.6833   -2.4042    0.0000 C   0  0  0  0  0  0  0  0  0  0  0  0
    9.7417   -2.1750    0.0000 O   0  0  0  0  0  0  0  0  0  0  0  0
    3.6792   -7.8125    0.0000 C   0  0  0  0  0  0  0  0  0  0  0  0
    2.9708   -6.5667    0.0000 C   0  0  0  0  0  0  0  0  0  0  0  0
    2.9708   -8.2167    0.0000 C   0  0  0  0  0  0  0  0  0  0  0  0
    2.2542   -6.9792    0.0000 C   0  0  0  0  0  0  0  0  0  0  0  0
    2.2542   -7.8125    0.0000 C   0  0  0  0  0  0  0  0  0  0  0  0
    8.7689   -4.8747    0.0000 H   0  0  0  0  0  0  0  0  0  0  0  0
    7.2542   -4.8792    0.0000 H   0  0  0  0  0  0  0  0  0  0  0  0
    7.9667   -3.6417    0.0000 H   0  0  0  0  0  0  0  0  0  0  0  0
  4  9  1  0  0  0  0
  5  4  1  0  0  0  0
  6 12  1  0  0  0  0
  7  5  1  0  0  0  0
  8  1  1  0  0  0  0
  9  8  1  0  0  0  0
 10  3  1  0  0  0  0
 11  2  1  0  0  0  0
 12 17  1  0  0  0  0
 13  5  2  0  0  0  0
 14  1  1  0  0  0  0
 15  7  2  0  0  0  0
 16 10  1  0  0  0  0
 17 21  2  0  0  0  0
 18  6  2  0  0  0  0
 19  6  1  0  0  0  0
 20 14  1  0  0  0  0
 21 13  1  0  0  0  0
  1 22  1  1  0  0  0
 14 23  1  1  0  0  0
 24 19  1  0  0  0  0
 25 19  2  0  0  0  0
 26 24  2  0  0  0  0
 27 25  1  0  0  0  0
 28 27  2  0  0  0  0
 20 11  1  0  0  0  0
  4  3  1  0  0  0  0
 16  7  1  0  0  0  0
 17 15  1  0  0  0  0
 28 26  1  0  0  0  0
  2 29  1  6  0  0  0
  2  1  1  0  0  0  0
  4 30  1  6  0  0  0
  3  2  1  0  0  0  0
  3 31  1  1  0  0  0
M  END