
  SciTegic10191216002D

 28 31  0  0  0  0            999 V2000
   11.2094  -20.4538    0.0000 C   0  0
   11.2083  -21.2816    0.0000 C   0  0
   11.9235  -21.6948    0.0000 C   0  0
   12.6403  -21.2811    0.0000 C   0  0
   12.6375  -20.4502    0.0000 C   0  0
   11.9217  -20.0408    0.0000 C   0  0
   11.9261  -22.5193    0.0000 C   0  0
   11.9201  -24.1693    0.0000 C   0  0
   12.6369  -23.7579    0.0000 N   0  0
   12.6407  -22.9298    0.0000 C   0  0
   11.2072  -23.7524    0.0000 C   0  0
   11.2103  -22.9326    0.0000 C   0  0
   10.5030  -22.5218    0.0000 C   0  0
    9.7921  -22.9295    0.0000 N   0  0
    9.7929  -23.7525    0.0000 C   0  0
   10.5007  -24.1597    0.0000 C   0  0
    8.3632  -23.7543    0.0000 C   0  0
    7.6487  -24.1680    0.0000 C   0  0
    6.9333  -23.7561    0.0000 C   0  0
    6.2218  -24.1698    0.0000 N   0  0
    5.5076  -23.7614    0.0000 C   0  0
    4.7981  -24.1716    0.0000 C   0  0
    4.7963  -24.9950    0.0000 C   0  0
    5.5101  -25.4066    0.0000 C   0  0
    6.2258  -24.9948    0.0000 C   0  0
   13.3502  -24.1733    0.0000 C   0  0
   11.9192  -19.2153    0.0000 F   0  0
    9.0786  -24.1662    0.0000 O   0  0
  7 12  1  0
 13 14  2  0
  1  2  2  0
 14 15  1  0
  3  4  2  0
 15 16  2  0
 16 11  1  0
 15 28  1  0
  4  5  1  0
 28 17  1  0
  7 10  1  0
 17 18  1  0
 11  8  1  0
 18 19  1  0
  8  9  1  0
 19 20  1  0
 20 21  1  0
  9 10  1  0
  7  3  1  0
  2  3  1  0
  5  6  2  0
 11 12  2  0
 20 25  1  0
 21 22  1  0
 22 23  1  0
 23 24  1  0
 24 25  1  0
  6  1  1  0
  9 26  1  0
 12 13  1  0
  6 27  1  0
M  END