
  SciTegic10311316292D

 53 55  0  0  0  0            999 V2000
   13.5839   -2.0585    0.0000 C   0  0
   13.5839   -2.8834    0.0000 C   0  0
   14.2959   -3.2918    0.0000 C   0  0
   14.2959   -1.6417    0.0000 C   0  0
   15.0079   -2.0585    0.0000 C   0  0
   15.0091   -2.8834    0.0000 C   0  0
   15.7201   -3.2928    0.0000 C   0  0
   15.7180   -1.6427    0.0000 O   0  0
   16.4336   -2.0565    0.0000 C   0  0
   16.4314   -2.8816    0.0000 C   0  0
   17.1436   -3.2942    0.0000 C   0  0
   17.8586   -2.8830    0.0000 C   0  0
   17.8568   -2.0548    0.0000 C   0  0
   17.1439   -1.6459    0.0000 C   0  0
   15.7213   -4.1166    0.0000 C   0  0
   15.0055   -4.5291    0.0000 C   0  0
   15.0059   -5.3534    0.0000 C   0  0
   15.7213   -5.7661    0.0000 C   0  0
   16.4378   -5.3485    0.0000 C   0  0
   16.4339   -4.5256    0.0000 C   0  0
   12.8682   -1.6480    0.0000 O   0  0
   18.5703   -1.6405    0.0000 O   0  0
   17.1469   -4.1105    0.0000 C   0  0
   17.8629   -4.5205    0.0000 O   0  5
   17.7299   -3.5210    0.0000 O   0  0
   15.7231   -6.5911    0.0000 N   0  0
   16.4386   -7.0021    0.0000 C   0  0
   16.4405   -7.8271    0.0000 N   0  0
   17.1521   -6.5879    0.0000 S   0  0
   15.7269   -8.2412    0.0000 C   0  0
   17.1559   -8.2380    0.0000 C   0  0
   17.8694   -7.8240    0.0000 C   0  0
   15.7287   -9.0663    0.0000 C   0  0
   15.0151   -9.4803    0.0000 C   0  0
   14.2997   -9.0694    0.0000 C   0  0
   13.5861   -9.4835    0.0000 N   0  0
   12.8707   -9.0726    0.0000 C   0  0
   12.8688   -8.2476    0.0000 O   0  0
   13.5879  -10.3086    0.0000 O   0  0
   12.1571   -9.4867    0.0000 C   0  0
   11.4418   -9.0758    0.0000 C   0  0
   10.7282   -9.4899    0.0000 C   0  0
   10.0127   -9.0790    0.0000 O   0  5
   10.7300  -10.3149    0.0000 O   0  0
   18.5810   -8.2382    0.0000 C   0  0
   19.2941   -7.8248    0.0000 C   0  0
   19.2927   -6.9988    0.0000 C   0  0
   18.5722   -6.5881    0.0000 C   0  0
   17.8621   -7.0039    0.0000 C   0  0
   20.0057   -6.5838    0.0000 C   0  0
   20.0027   -5.7587    0.0000 N   0  0
   18.5403   -4.4542    0.0000 Na  0  3
    9.4034   -8.9846    0.0000 Na  0  3
  1  2  1  0
  1  4  1  0
  2  3  2  0
  3  6  1  0
  5  4  2  0
  5  6  1  0
  5  8  1  0
  6  7  2  0
  7 10  1  0
  9  8  1  0
  9 10  2  0
 10 11  1  0
 11 12  2  0
 12 13  1  0
 13 14  2  0
 14  9  1  0
 15 16  2  0
 16 17  1  0
 17 18  2  0
 18 19  1  0
 19 20  2  0
 20 15  1  0
  7 15  1  0
  1 21  2  0
 13 22  1  0
 20 23  1  0
 23 24  1  0
 23 25  2  0
 18 26  1  0
 26 27  1  0
 27 28  1  0
 27 29  2  0
 28 30  1  0
 28 31  1  0
 31 32  1  0
 30 33  1  0
 33 34  1  0
 34 35  1  0
 35 36  1  0
 36 37  1  0
 37 38  2  0
 36 39  1  0
 37 40  1  0
 40 41  2  0
 41 42  1  0
 42 43  1  0
 42 44  2  0
 32 45  2  0
 45 46  1  0
 46 47  2  0
 47 48  1  0
 48 49  2  0
 49 32  1  0
 47 50  1  0
 50 51  1  0
M  CHG  4  24  -1  43  -1  52   1  53   1
M  END