
          11280715142D 1   1.00000     0.00000     0

 10 11  0     0  0            999 V2000
   12.5042  -13.0792    0.0000 C   0  0  3  0  0  0           0  0  0
   13.1917  -12.6292    0.0000 C   0  0  3  0  0  0           0  0  0
   13.2375  -13.4542    0.0000 C   0  0  0  0  0  0           0  0  0
   11.8292  -12.5917    0.0000 C   0  0  0  0  0  0           0  0  0
   11.1667  -13.0792    0.0000 O   0  0  0  0  0  0           0  0  0
   11.8292  -11.7667    0.0000 O   0  0  0  0  0  0           0  0  0
   12.2417  -13.8667    0.0000 C   0  0  0  0  0  0           0  0  0
   14.0167  -12.6292    0.0000 C   0  0  0  0  0  0           0  0  0
   13.0917  -11.8167    0.0000 C   0  0  0  0  0  0           0  0  0
   11.4167  -13.8667    0.0000 C   0  0  0  0  0  0           0  0  0
  2  1  1  0     0  0
  3  1  1  0     0  0
  4  1  1  0     0  0
  5  4  1  0     0  0
  6  4  2  0     0  0
  7  1  1  0     0  0
  8  2  1  0     0  0
  9  2  1  0     0  0
 10  7  1  0     0  0
  3  2  1  0     0  0
 10  5  1  0     0  0
M  END