
  Mrv0541 09061315222D          

 31 33  0  0  0  0            999 V2000
    5.5375   -4.9250    0.0000 N   0  0  0  0  0  0  0  0  0  0  0  0
    5.1250   -3.6542    0.0000 N   0  0  0  0  0  0  0  0  0  0  0  0
    6.2042   -4.4417    0.0000 C   0  0  0  0  0  0  0  0  0  0  0  0
    4.8667   -4.4417    0.0000 C   0  0  0  0  0  0  0  0  0  0  0  0
    8.9917   -3.8542    0.0000 C   0  0  0  0  0  0  0  0  0  0  0  0
    5.9500   -3.6542    0.0000 C   0  0  0  0  0  0  0  0  0  0  0  0
    8.8167   -3.0417    0.0000 C   0  0  0  0  0  0  0  0  0  0  0  0
    2.6792   -7.4000    0.0000 C   0  0  0  0  0  0  0  0  0  0  0  0
    5.5375   -5.7500    0.0000 C   0  0  0  0  0  0  0  0  0  0  0  0
    7.6042   -4.1500    0.0000 N   0  0  0  0  0  0  0  0  0  0  0  0
    8.3875   -4.4042    0.0000 C   0  0  0  0  0  0  0  0  0  0  0  0
    6.9875   -4.7000    0.0000 C   0  0  0  0  0  0  0  0  0  0  0  0
    3.3917   -6.9792    0.0000 C   0  0  0  0  0  0  0  0  0  0  0  0
    8.0292   -2.7917    0.0000 O   0  0  0  0  0  0  0  0  0  0  0  0
    1.9667   -6.9875    0.0000 O   0  0  0  0  0  0  0  0  0  0  0  0
    3.3917   -6.1542    0.0000 C   0  0  0  0  0  0  0  0  0  0  0  0
    4.1125   -7.3917    0.0000 C   0  0  0  0  0  0  0  0  0  0  0  0
    4.8167   -6.1625    0.0000 C   0  0  0  0  0  0  0  0  0  0  0  0
    9.4292   -2.4917    0.0000 O   0  0  0  0  0  0  0  0  0  0  0  0
    2.6792   -8.2250    0.0000 O   0  0  0  0  0  0  0  0  0  0  0  0
    4.1042   -5.7417    0.0000 C   0  0  0  0  0  0  0  0  0  0  0  0
    4.8250   -6.9792    0.0000 C   0  0  0  0  0  0  0  0  0  0  0  0
    9.7750   -4.1042    0.0000 C   0  0  0  0  0  0  0  0  0  0  0  0
    4.0792   -4.7000    0.0000 C   0  0  0  0  0  0  0  0  0  0  0  0
    8.5542   -5.2125    0.0000 C   0  0  0  0  0  0  0  0  0  0  0  0
    3.4667   -4.1500    0.0000 C   0  0  0  0  0  0  0  0  0  0  0  0
    2.6792   -4.4042    0.0000 C   0  0  0  0  0  0  0  0  0  0  0  0
    9.9500   -4.9167    0.0000 C   0  0  0  0  0  0  0  0  0  0  0  0
    2.0667   -3.8542    0.0000 C   0  0  0  0  0  0  0  0  0  0  0  0
    9.3375   -5.4667    0.0000 C   0  0  0  0  0  0  0  0  0  0  0  0
    6.4356   -2.9872    0.0000 H   0  0  0  0  0  0  0  0  0  0  0  0
  2  4  2  0  0  0  0
  3  1  1  0  0  0  0
  4  1  1  0  0  0  0
  5 11  1  0  0  0  0
  6  3  2  0  0  0  0
  7  5  1  0  0  0  0
  8 13  1  0  0  0  0
  9  1  1  0  0  0  0
 10 12  1  0  0  0  0
 11 10  1  0  0  0  0
 12  3  1  0  0  0  0
 13 17  1  0  0  0  0
 14  7  2  0  0  0  0
 15  8  2  0  0  0  0
 16 21  1  0  0  0  0
 17 22  2  0  0  0  0
 18  9  1  0  0  0  0
 19  7  1  0  0  0  0
 20  8  1  0  0  0  0
 21 18  2  0  0  0  0
 22 18  1  0  0  0  0
 23  5  2  0  0  0  0
 24  4  1  0  0  0  0
 25 11  2  0  0  0  0
 26 24  1  0  0  0  0
 27 26  1  0  0  0  0
 28 30  2  0  0  0  0
 29 27  1  0  0  0  0
 30 25  1  0  0  0  0
  6  2  1  0  0  0  0
 16 13  2  0  0  0  0
 23 28  1  0  0  0  0
  6 31  1  0  0  0  0
M  ISO  1  31   3
M  END