
  SciTegic06231514502D

 36 37  0  0  0  0            999 V2000
    0.0000    0.0000    0.0000 Cl  0  5
    4.3827   -0.2062    0.0000 N   0  3
   12.2419    0.2062    0.0000 N   0  3
    2.2393   -1.4438    0.0000 N   0  0
   14.3853    1.4438    0.0000 N   0  0
    3.6682    0.2062    0.0000 C   0  0
   12.9564   -0.2063    0.0000 C   0  0
    2.9538   -0.2063    0.0000 C   0  0
   13.6708    0.2062    0.0000 C   0  0
    2.9538   -1.0313    0.0000 C   0  0
   13.6708    1.0312    0.0000 C   0  0
    4.3827   -1.0313    0.0000 C   0  0
   12.2419    1.0312    0.0000 C   0  0
    3.6682   -1.4437    0.0000 C   0  0
   12.9564    1.4437    0.0000 C   0  0
    3.6682    1.0313    0.0000 C   0  0
   12.9564   -1.0313    0.0000 C   0  0
    2.2393    0.2062    0.0000 C   0  0
   14.3853   -0.2062    0.0000 C   0  0
    5.0972    0.2062    0.0000 C   0  0
   11.5274   -0.2063    0.0000 C   0  0
    2.9538    1.4437    0.0000 C   0  0
   13.6708   -1.4438    0.0000 C   0  0
    2.2393    1.0312    0.0000 C   0  0
   14.3853   -1.0312    0.0000 C   0  0
    5.0972   -1.4438    0.0000 C   0  0
   11.5274    1.4437    0.0000 C   0  0
    5.8116   -0.2063    0.0000 C   0  0
   10.8129    0.2062    0.0000 C   0  0
    6.5261    0.2062    0.0000 C   0  0
   10.0985   -0.2063    0.0000 C   0  0
    7.2406   -0.2063    0.0000 C   0  0
    9.3840    0.2062    0.0000 C   0  0
    7.9551    0.2062    0.0000 C   0  0
    8.6695   -0.2063    0.0000 C   0  0
    6.9911   -2.2500    0.0000 Cl  0  5
  2  6  1  0
  2 12  2  0
  2 20  1  0
  3  7  1  0
  3 13  2  0
  3 21  1  0
  4 10  1  0
  5 11  1  0
  6  8  2  0
  6 16  1  0
  7  9  2  0
  7 17  1  0
  8 10  1  0
  8 18  1  0
  9 11  1  0
  9 19  1  0
 10 14  2  0
 11 15  2  0
 12 14  1  0
 12 26  1  0
 13 15  1  0
 13 27  1  0
 16 22  2  0
 17 23  2  0
 18 24  2  0
 19 25  2  0
 20 28  1  0
 21 29  1  0
 22 24  1  0
 23 25  1  0
 28 30  1  0
 29 31  1  0
 30 32  1  0
 31 33  1  0
 32 34  1  0
 33 35  1  0
 34 35  1  0
M  CHG  4   1  -1   2   1   3   1  36  -1
M  END