
  SciTegic12231509382D

 63 69  0  0  0  0            999 V2000
    6.7832  -15.4789    0.0000 C   0  0
    6.3725  -14.7654    0.0000 C   0  0
    5.9613  -15.4763    0.0000 C   0  0
   10.2557   -9.9653    0.0000 C   0  0
   10.6747  -10.6831    0.0000 C   0  0  2  0  0  0
   11.0853   -9.9628    0.0000 C   0  0
    5.6630  -13.5332    0.0000 C   0  0
    5.6630  -14.3588    0.0000 C   0  0  2  0  0  0
    6.3762  -13.1142    0.0000 C   0  0
    7.0893  -13.5332    0.0000 C   0  0  1  0  0  0
    7.0903  -14.3588    0.0000 C   0  0  1  0  0  0
    7.8024  -14.7663    0.0000 C   0  0
    8.5181  -14.3570    0.0000 C   0  0
    7.8003  -13.1151    0.0000 C   0  0  2  0  0  0
    8.5127  -13.5336    0.0000 C   0  0  2  0  0  0
    8.5205  -11.8872    0.0000 C   0  0
    7.8011  -12.2927    0.0000 C   0  0
    9.2329  -12.3016    0.0000 C   0  0
    9.2225  -13.1221    0.0000 C   0  0  1  0  0  0
    9.9245  -13.5413    0.0000 C   0  0
   10.6415  -13.1402    0.0000 C   0  0
    9.9455  -11.9001    0.0000 C   0  0  1  0  0  0
   10.6489  -12.3206    0.0000 C   0  0  2  0  0  0
   11.3587  -11.9275    0.0000 C   0  0
   11.3756  -11.1081    0.0000 C   0  0
    9.9561  -11.0823    0.0000 C   0  0
   11.9108   -9.9603    0.0000 O   0  0
   10.6724   -9.2526    0.0000 O   0  0
   10.6415  -11.4921    0.0000 C   0  0
    9.9404  -12.7242    0.0000 H   0  0
    9.2144  -13.9440    0.0000 C   0  0
    8.5050  -12.7076    0.0000 C   0  0
    7.7955  -13.9398    0.0000 H   0  0
    7.0874  -11.8789    0.0000 O   0  0
    7.0819  -12.7076    0.0000 C   0  0
    7.0861  -15.1802    0.0000 H   0  0
    4.9518  -14.7698    0.0000 O   0  0
    5.0781  -13.7697    0.0000 H   0  0
    4.2361  -14.3593    0.0000 C   0  0  1  0  0  0
    4.2335  -13.5332    0.0000 O   0  0
    3.5219  -13.1186    0.0000 C   0  0  1  0  0  0
    2.8041  -13.5303    0.0000 C   0  0  2  0  0  0
    2.8024  -14.3569    0.0000 C   0  0  1  0  0  0
    3.5185  -14.7718    0.0000 C   0  0  1  0  0  0
    3.5248  -12.2931    0.0000 C   0  0
    4.2417  -11.8849    0.0000 O   0  0
    2.8107  -11.8799    0.0000 O   0  0
    2.0900  -13.1130    0.0000 O   0  0
    2.0856  -14.7654    0.0000 O   0  0
    3.5171  -15.5974    0.0000 O   0  0
    2.8008  -16.0110    0.0000 C   0  0  2  0  0  0
    2.0851  -15.5968    0.0000 O   0  0
    1.3710  -16.0070    0.0000 C   0  0  1  0  0  0
    1.3653  -16.8329    0.0000 C   0  0  2  0  0  0
    2.0800  -17.2471    0.0000 C   0  0  1  0  0  0
    2.8003  -16.8395    0.0000 C   0  0  1  0  0  0
    0.6577  -15.5883    0.0000 C   0  0
    0.6622  -14.7626    0.0000 O   0  0
   -0.0601  -15.9992    0.0000 O   0  0
    0.6475  -17.2397    0.0000 O   0  0
    2.0757  -18.0726    0.0000 O   0  0
    3.5144  -17.2526    0.0000 O   0  0
    2.7962  -15.1844    0.0000 H   0  0
 13 15  1  0
 22 30  1  1
 14 15  1  0
 19 31  1  6
  7  8  1  0
 15 32  1  1
 14 33  1  6
 17 34  2  0
  5  4  1  0
 10 35  1  1
 14 17  1  0
 11 36  1  6
 15 19  1  0
  8 37  1  0
 18 16  2  0
  8 38  1  6
 16 17  1  0
 39 37  1  6
 39 40  1  0
 18 19  1  0
  7  9  1  0
  8  2  1  0
  2 11  1  0
 10  9  1  0
 39 44  1  0
 41 40  1  0
 42 41  1  0
 43 42  1  0
 44 43  1  0
 18 22  1  0
 41 45  1  1
 19 20  1  0
 45 46  1  0
 20 21  1  0
 45 47  2  0
 21 23  1  0
 42 48  1  6
 22 23  1  0
 43 49  1  1
 10 11  1  0
 44 50  1  6
  5  6  1  1
 50 51  1  0
 51 52  1  0
  2  1  1  0
  3  2  1  0
 22 26  1  0
 23 24  1  0
 51 56  1  0
 52 53  1  0
 53 54  1  0
 54 55  1  0
 55 56  1  0
 24 25  1  0
 53 57  1  1
 25  5  1  0
 57 58  1  0
  5 26  1  0
 57 59  2  0
 10 14  1  0
 54 60  1  6
  6 27  1  0
 55 61  1  1
 11 12  1  0
 56 62  1  6
  6 28  2  0
 51 63  1  6
 12 13  1  0
 23 29  1  1
M  END