
          11280714442D 1   1.00000     0.00000     0

 27 28  0     0  0            999 V2000
    3.1125   -6.1917    0.0000 C   0  0  0  0  0  0           0  0  0
    9.4667   -4.6750    0.0000 C   0  0  0  0  0  0           0  0  0
    2.4167   -6.6417    0.0000 C   0  0  0  0  0  0           0  0  0
    3.8417   -6.5750    0.0000 O   0  0  0  0  0  0           0  0  0
   10.2042   -5.0542    0.0000 C   0  0  0  0  0  0           0  0  0
    3.0750   -5.3750    0.0000 O   0  0  0  0  0  0           0  0  0
    8.7792   -5.1167    0.0000 C   0  0  0  0  0  0           0  0  0
    2.4542   -7.4625    0.0000 C   0  0  0  0  0  0           0  0  0
    1.6792   -6.2542    0.0000 C   0  0  0  0  0  0           0  0  0
   10.2417   -5.8792    0.0000 C   0  0  0  0  0  0           0  0  0
    4.5375   -6.1292    0.0000 C   0  0  0  0  0  0           0  0  0
    8.8167   -5.9375    0.0000 C   0  0  0  0  0  0           0  0  0
    1.0292   -7.5292    0.0000 C   0  0  0  0  0  0           0  0  0
    5.2667   -6.5125    0.0000 C   0  0  3  0  0  0           0  0  0
    0.9917   -6.7042    0.0000 C   0  0  0  0  0  0           0  0  0
    1.7667   -7.9042    0.0000 C   0  0  0  0  0  0           0  0  0
    9.5500   -6.3167    0.0000 C   0  0  0  0  0  0           0  0  0
    9.4292   -3.8500    0.0000 O   0  0  0  0  0  0           0  0  0
    6.7000   -6.4417    0.0000 N   0  0  0  0  0  0           0  0  0
    0.3292   -7.9750    0.0000 F   0  0  0  0  0  0           0  0  0
   10.8917   -4.6042    0.0000 O   0  0  0  0  0  0           0  0  0
    5.3042   -7.3375    0.0000 O   0  0  0  0  0  0           0  0  0
    5.9667   -6.0667    0.0000 C   0  0  0  0  0  0           0  0  0
    7.3917   -6.0042    0.0000 C   0  0  0  0  0  0           0  0  0
    8.1250   -6.3792    0.0000 C   0  0  0  0  0  0           0  0  0
   10.1167   -3.4042    0.0000 C   0  0  0  0  0  0           0  0  0
   11.6292   -4.9875    0.0000 C   0  0  0  0  0  0           0  0  0
  2  7  2  0     0  0
  3  1  1  0     0  0
  4  1  1  0     0  0
  5 10  2  0     0  0
  6  1  2  0     0  0
  7 12  1  0     0  0
  8  3  1  0     0  0
  9  3  2  0     0  0
 10 17  1  0     0  0
 11  4  1  0     0  0
 12 25  1  0     0  0
 13 15  2  0     0  0
 14 11  1  0     0  0
 15  9  1  0     0  0
 16  8  2  0     0  0
 17 12  2  0     0  0
 18  2  1  0     0  0
 19 23  1  0     0  0
 20 13  1  0     0  0
 21  5  1  0     0  0
 22 14  1  0     0  0
 23 14  1  0     0  0
 24 19  1  0     0  0
 25 24  1  0     0  0
 26 18  1  0     0  0
 27 21  1  0     0  0
 16 13  1  0     0  0
  5  2  1  0     0  0
M  END