
  SciTegic12191611282D

 93 91  0  0  0  0            999 V2000
    0.9361   18.3596    0.0000 N   0  0
    1.2390   19.8295    0.0000 C   0  0
    2.3780   20.2071    0.0000 N   0  0
    0.1180   20.8275    0.0000 N   0  0
    1.4333   13.0462    0.0000 N   0  0
    2.5723   13.4238    0.0000 C   0  0  2  0  0  0
    4.8323   12.8034    0.0000 O   0  0
    3.6933   12.4258    0.0000 C   0  0
    2.8752   14.8937    0.0000 C   0  0
    1.7542   15.8917    0.0000 C   0  0
    2.0571   17.3616    0.0000 C   0  0
    9.6022    8.8981    0.0000 N   0  0
   11.0278    9.3674    0.0000 C   0  0
   11.2723   10.5422    0.0000 N   0  0
   11.9231    8.5684    0.0000 N   0  0
    3.3904   10.9558    0.0000 N   0  0
    4.5114    9.9579    0.0000 C   0  0  2  0  0  0
    3.0695    8.1103    0.0000 O   0  0
    4.2085    8.4879    0.0000 C   0  0
    5.9369   10.4272    0.0000 C   0  0
    7.0568    9.4280    0.0000 C   0  0
    8.4823    9.8973    0.0000 C   0  0
    5.3274    7.4916    0.0000 N   0  0
    5.1895    6.0108    0.0000 C   0  0  2  0  0  0
    2.8510    5.8560    0.0000 O   0  0
    3.8913    5.2578    0.0000 C   0  0
    6.5409    5.3897    0.0000 C   0  0
    6.7947    7.8035    0.0000 C   0  0
    7.5446    6.5044    0.0000 C   0  0
    3.8934    3.7569    0.0000 N   0  0
    2.5951    3.0040    0.0000 C   0  0  2  0  0  0
    1.2884    4.9495    0.0000 O   0  0
    1.2926    3.7495    0.0000 C   0  0
    2.5973    1.5031    0.0000 C   0  0
    1.2990   -0.7500    0.0000 C   0  0
    1.2990    0.7500    0.0000 C   0  0
    0.0000    1.5000    0.0000 C   0  0
   -1.2990    0.7500    0.0000 C   0  0
   -1.2990   -0.7500    0.0000 C   0  0
    0.0000   -1.5000    0.0000 C   0  0
   -2.3383   -1.3500    0.0000 O   0  0
   -0.0049    2.9950    0.0000 N   0  0
   -1.3074    3.7406    0.0000 C   0  0  2  0  0  0
   -2.6007    1.7861    0.0000 O   0  0
   -2.6048    2.9861    0.0000 C   0  0
   -1.3156    5.2414    0.0000 C   0  0  1  0  0  0
   -0.2795    5.8467    0.0000 C   0  0
   -2.6190    5.9855    0.0000 C   0  0
   -2.6256    7.1855    0.0000 C   0  0
   -3.9074    3.7317    0.0000 N   0  0
   -5.2048    2.9772    0.0000 C   0  0  2  0  0  0
   -6.2408    0.8743    0.0000 O   0  0
   -5.2027    1.4764    0.0000 C   0  0
   -6.5073    3.7227    0.0000 C   0  0
   -7.8048    2.9683    0.0000 C   0  0
   -8.8462    3.5644    0.0000 C   0  0
   -7.8006    1.7683    0.0000 C   0  0
   -4.1625    0.8781    0.0000 O   0  0
    0.4209   22.2975    0.0000 C   0  0
    1.5600   22.6750    0.0000 O   0  0
   -0.7000   23.2954    0.0000 N   0  0
   -0.3972   24.7654    0.0000 C   0  0
   -1.5181   25.7633    0.0000 C   0  0
   -1.2153   27.2333    0.0000 C   0  0
   -2.3362   28.2313    0.0000 C   0  0
   -2.0334   29.7012    0.0000 N   0  0
   -3.1543   30.6992    0.0000 C   0  0
   -2.8515   32.1691    0.0000 C   0  0
   -4.2934   30.3216    0.0000 O   0  0
   -3.9724   33.1671    0.0000 C   0  0
   -1.7124   32.5467    0.0000 T   0  0
   17.2476   16.1933    0.0000 C   0  0
   15.9476   16.9433    0.0000 C   0  0
   15.9476   18.1433    0.0000 O   0  0
   14.9082   16.3437    0.0000 O   0  0
   18.2870   16.7930    0.0000 F   0  0
   18.2867   15.5932    0.0000 F   0  0
   17.2476   14.9933    0.0000 F   0  0
   23.6475   16.1933    0.0000 C   0  0
   22.3476   16.9433    0.0000 C   0  0
   22.3476   18.1433    0.0000 O   0  0
   21.3081   16.3437    0.0000 O   0  0
   24.6870   16.7930    0.0000 F   0  0
   24.6867   15.5932    0.0000 F   0  0
   23.6475   14.9933    0.0000 F   0  0
   30.0475   16.1933    0.0000 C   0  0
   28.7475   16.9433    0.0000 C   0  0
   28.7475   18.1433    0.0000 O   0  0
   27.7081   16.3437    0.0000 O   0  0
   31.0869   16.7930    0.0000 F   0  0
   31.0867   15.5932    0.0000 F   0  0
   30.0475   14.9933    0.0000 F   0  0
   -3.7303   34.3424    0.0000 T   0  0
  8 16  1  0
 19 23  1  0
 26 30  1  0
 33 42  1  0
 45 50  1  0
 53 58  1  0
  1  2  1  0
  2  3  1  0
  2  4  2  0
  6  5  1  1
  6  8  1  0
  8  7  2  0
  6  9  1  0
  9 10  1  0
 10 11  1  0
 11  1  1  0
 12 13  1  0
 13 14  1  0
 13 15  2  0
 17 16  1  1
 17 19  1  0
 19 18  2  0
 17 20  1  0
 20 21  1  0
 21 22  1  0
 22 12  1  0
 23 24  1  0
 24 26  1  1
 26 25  2  0
 24 27  1  0
 28 29  1  0
 29 27  1  0
 28 23  1  0
 31 30  1  1
 31 33  1  0
 33 32  2  0
 31 34  1  0
 34 36  1  0
 35 36  2  0
 36 37  1  0
 37 38  2  0
 38 39  1  0
 39 40  2  0
 40 35  1  0
 39 41  1  0
 43 42  1  6
 43 45  1  0
 45 44  2  0
 43 46  1  0
 46 47  1  6
 46 48  1  0
 48 49  1  0
 50 51  1  0
 51 53  1  0
 53 52  2  0
 51 54  1  6
 54 55  1  0
 55 56  1  0
 55 57  1  0
  4 59  1  0
 59 60  2  0
 59 61  1  0
 61 62  1  0
 62 63  1  0
 63 64  1  0
 64 65  1  0
 65 66  1  0
 66 67  1  0
 67 68  1  0
 67 69  2  0
 68 70  1  0
 68 71  1  0
 72 73  1  0
 73 74  1  0
 73 75  2  0
 72 76  1  0
 72 77  1  0
 72 78  1  0
 79 80  1  0
 80 81  1  0
 80 82  2  0
 79 83  1  0
 79 84  1  0
 79 85  1  0
 86 87  1  0
 87 88  1  0
 87 89  2  0
 86 90  1  0
 86 91  1  0
 86 92  1  0
 70 93  1  0
M  END