
  SciTegic01161211222D

 24 27  0  0  0  0            999 V2000
    4.4417   -4.3375    0.0000 C   0  0  2  0  0  0
    0.0875   -5.8333    0.0000 C   0  0
    0.0875   -6.6583    0.0000 C   0  0  1  0  0  0
    0.7995   -7.0667    0.0000 C   0  0
    0.7995   -5.4167    0.0000 C   0  0
    1.5115   -5.8333    0.0000 C   0  0  1  0  0  0
    1.5126   -6.6583    0.0000 C   0  0
    2.2236   -7.0676    0.0000 C   0  0
    2.9382   -6.6565    0.0000 C   0  0
    2.2215   -5.4176    0.0000 C   0  0  2  0  0  0
    2.9391   -5.8322    0.0000 C   0  0  2  0  0  0
    2.9378   -4.1777    0.0000 C   0  0
    2.2178   -4.5913    0.0000 C   0  0
    3.6554   -4.5923    0.0000 C   0  0  1  0  0  0
    3.6522   -5.4217    0.0000 C   0  0  1  0  0  0
    4.4402   -5.6811    0.0000 C   0  0
    4.9303   -5.0118    0.0000 C   0  0
   -0.6264   -7.0719    0.0000 O   0  0
    1.5042   -5.0083    0.0000 C   0  0
    2.9333   -5.0042    0.0000 H   0  0
    3.6458   -6.2458    0.0000 H   0  0
    3.4375   -3.7917    0.0000 C   0  0
    4.6974   -3.5531    0.0000 O   0  0
    2.2167   -6.2417    0.0000 H   0  0
  6 19  1  1
  4  7  2  0
  6  5  1  0
 11 20  1  1
  6  7  1  0
 15 21  1  6
 10 13  1  0
 11 15  1  0
 14 12  1  0
 12 13  1  0
 14 15  1  0
  2  3  1  0
  2  5  1  0
  3  4  1  0
  6 10  1  0
  7  8  1  0
 15 16  1  0
 16 17  1  0
 17  1  1  0
  1 14  1  0
  8  9  1  0
  3 18  1  1
  9 11  1  0
 14 22  1  1
  1 23  1  1
 10 11  1  0
 10 24  1  6
M  END