
  SciTegic11081110012D

 23 25  0  0  0  0            999 V2000
   16.7265   -4.2063    0.0000 C   0  0
   16.0120   -4.6188    0.0000 C   0  0
   16.0120   -5.4438    0.0000 N   0  0
   16.7265   -5.8563    0.0000 C   0  0
   17.4409   -5.4438    0.0000 C   0  0
   17.4409   -4.6188    0.0000 C   0  0
   15.2975   -5.8563    0.0000 C   0  0
   14.5831   -5.4438    0.0000 C   0  0
   13.8686   -5.8563    0.0000 C   0  0
   13.1541   -5.4438    0.0000 O   0  0
   12.4396   -5.8563    0.0000 C   0  0
   11.7252   -5.4438    0.0000 C   0  0
   11.0107   -5.8563    0.0000 C   0  0
   11.0107   -6.6813    0.0000 C   0  0
   11.7252   -7.0938    0.0000 C   0  0
   12.4396   -6.6813    0.0000 N   0  0
   10.2962   -7.0938    0.0000 C   0  0
    9.5818   -6.6813    0.0000 N   0  0
    9.5818   -5.8563    0.0000 C   0  0
    8.8673   -5.4438    0.0000 C   0  0
    8.1528   -5.8563    0.0000 C   0  0
    8.1528   -6.6813    0.0000 C   0  0
    8.8673   -7.0938    0.0000 C   0  0
  1  2  1  0
  1  6  1  0
  2  3  1  0
  3  4  1  0
  4  5  1  0
  5  6  1  0
  3  7  1  0
  7  8  1  0
  8  9  1  0
  9 10  1  0
 10 11  1  0
 11 12  2  0
 12 13  1  0
 13 14  2  0
 14 15  1  0
 15 16  2  0
 16 11  1  0
 14 17  1  0
 17 18  1  0
 18 19  1  0
 18 23  1  0
 19 20  1  0
 20 21  1  0
 21 22  1  0
 22 23  1  0
M  END