
  SciTegic01161211212D

 43 45  0  0  0  0            999 V2000
    1.2292   -4.6208    0.0000 C   0  0
    0.3417   -5.6167    0.0000 C   0  0
    1.1500   -5.4417    0.0000 S   0  0
    2.6583   -4.6125    0.0000 C   0  0
    1.9417   -4.2042    0.0000 N   0  0
    7.6500   -4.1833    0.0000 N   0  3
    0.0125   -6.3750    0.0000 C   0  0
    4.8000   -4.1917    0.0000 C   0  0
    3.3708   -4.1958    0.0000 N   0  0
    4.0875   -4.6083    0.0000 C   0  0  1  0  0  0
   -0.0708   -4.9042    0.0000 C   0  0
    5.5167   -4.6000    0.0000 N   0  0
    0.4750   -4.2917    0.0000 C   0  0
   -0.8083   -6.4625    0.0000 O   0  0
    2.6625   -5.4375    0.0000 O   0  0
    0.5000   -7.0375    0.0000 O   0  0
    4.7958   -3.3667    0.0000 O   0  0
    6.9417   -4.5958    0.0000 C   0  0
    4.0917   -5.4333    0.0000 C   0  0
    8.3667   -3.7750    0.0000 C   0  0
    6.2292   -4.1833    0.0000 C   0  0  2  0  0  0
    4.8083   -5.8417    0.0000 C   0  0
    9.0792   -4.1917    0.0000 C   0  0
    7.6500   -3.3583    0.0000 C   0  0
   10.5042   -5.0208    0.0000 C   0  0
    6.2417   -6.6583    0.0000 C   0  0
    7.6458   -5.0042    0.0000 C   0  0
    4.8125   -6.6667    0.0000 C   0  0
    5.5167   -5.4250    0.0000 C   0  0
    9.7917   -3.7833    0.0000 C   0  0
    9.0750   -5.0167    0.0000 C   0  0
    6.2333   -5.8292    0.0000 C   0  0
    9.7875   -5.4333    0.0000 C   0  0
    5.5250   -7.0750    0.0000 C   0  0
   10.5042   -4.1917    0.0000 C   0  0
   11.2167   -5.4375    0.0000 O   0  0
    6.9583   -7.0667    0.0000 O   0  0
   -1.1417   -7.2208    0.0000 C   0  0
    6.9375   -2.9458    0.0000 C   0  0
    6.2208   -3.3625    0.0000 C   0  0
   -1.9583   -7.3083    0.0000 C   0  0
   -0.6500   -7.8833    0.0000 C   0  0
    8.8583   -8.3375    0.0000 I   0  5
  2  3  1  0
  3  1  1  0
  4  5  1  0
  5  1  1  0
  6 18  1  0
  7  2  1  0
  8 10  1  0
  9  4  1  0
 10  9  1  0
 11 13  1  0
 12  8  1  0
 13  1  2  0
 14  7  1  0
 15  4  2  0
 16  7  2  0
 17  8  2  0
 18 21  1  0
 10 19  1  6
 20  6  1  0
 21 12  1  1
 22 19  1  0
 23 20  1  0
 24  6  1  0
 25 35  1  0
 26 32  1  0
 27  6  1  0
 28 22  2  0
 29 22  1  0
 30 23  1  0
 31 23  2  0
 32 29  2  0
 33 31  1  0
 34 28  1  0
 35 30  2  0
 36 25  1  0
 37 26  1  0
 38 14  1  0
 39 40  1  0
 40 21  1  0
 41 38  1  0
 42 38  1  0
  2 11  2  0
 26 34  2  0
 39 24  1  0
 25 33  2  0
M  CHG  2   6   1  43  -1
M  END