
          11280715492D 1   1.00000     0.00000     0

 26 29  0     0  0            999 V2000
    2.9819   -7.0958    0.0000 N   0  0  0  0  0  0           0  0  0
    2.9807   -7.9232    0.0000 C   0  0  0  0  0  0           0  0  0
    3.6956   -8.3360    0.0000 C   0  0  0  0  0  0           0  0  0
    4.4120   -7.9227    0.0000 C   0  0  0  0  0  0           0  0  0
    4.4091   -7.0922    0.0000 C   0  0  0  0  0  0           0  0  0
    3.6938   -6.6830    0.0000 C   0  0  0  0  0  0           0  0  0
    5.1271   -8.3341    0.0000 C   0  0  0  0  0  0           0  0  0
    6.0186   -9.3299    0.0000 N   0  0  0  0  0  0           0  0  0
    6.4302   -8.6184    0.0000 C   0  0  0  0  0  0           0  0  0
    5.8695   -7.9959    0.0000 N   0  0  0  0  0  0           0  0  0
    5.2115   -9.1515    0.0000 C   0  0  0  0  0  0           0  0  0
    4.5958   -9.6996    0.0000 C   0  0  0  0  0  0           0  0  0
    3.8744   -9.2971    0.0000 C   0  0  0  0  0  0           0  0  0
    3.1672   -9.7205    0.0000 C   0  0  0  0  0  0           0  0  0
    3.1803  -10.5463    0.0000 C   0  0  0  0  0  0           0  0  0
    3.9065  -10.9468    0.0000 C   0  0  0  0  0  0           0  0  0
    4.6106  -10.5211    0.0000 C   0  0  0  0  0  0           0  0  0
    7.2550   -8.5988    0.0000 C   0  0  0  0  0  0           0  0  0
    7.6802   -9.3034    0.0000 C   0  0  0  0  0  0           0  0  0
    8.5042   -9.2841    0.0000 C   0  0  0  0  0  0           0  0  0
    8.9004   -8.5595    0.0000 C   0  0  0  0  0  0           0  0  0
    8.4666   -7.8528    0.0000 C   0  0  0  0  0  0           0  0  0
    7.6440   -7.8755    0.0000 C   0  0  0  0  0  0           0  0  0
    2.4733  -10.9714    0.0000 C   0  0  0  0  0  0           0  0  0
    1.7516  -10.5716    0.0000 N   0  0  0  0  0  0           0  0  0
    1.0445  -10.9967    0.0000 O   0  0  0  0  0  0           0  0  0
 12 13  2  0     0  0
  1  2  2  0     0  0
 13 14  1  0     0  0
  4  7  1  0     0  0
 14 15  2  0     0  0
  3  4  2  0     0  0
 15 16  1  0     0  0
 16 17  2  0     0  0
 17 12  1  0     0  0
 11 12  1  0     0  0
  4  5  1  0     0  0
  9 18  1  0     0  0
  2  3  1  0     0  0
 18 19  2  0     0  0
  8  9  1  0     0  0
 19 20  1  0     0  0
  9 10  2  0     0  0
 20 21  2  0     0  0
 10  7  1  0     0  0
 21 22  1  0     0  0
  7 11  2  0     0  0
 22 23  2  0     0  0
 23 18  1  0     0  0
 11  8  1  0     0  0
 15 24  1  0     0  0
  5  6  2  0     0  0
 24 25  2  0     0  0
  6  1  1  0     0  0
 25 26  1  0     0  0
M  END