
  SciTegic09081514172D

 30 32  0  0  0  0            999 V2000
    2.5987   -1.5004    0.0000 N   0  0
    2.7343   -2.9815    0.0000 N   0  0
    4.2010   -3.2956    0.0000 C   0  0
    4.9531   -1.9978    0.0000 C   0  0
    3.9511   -0.8815    0.0000 C   0  0
    6.4437   -1.8466    0.0000 C   0  0
    6.9354   -0.7520    0.0000 O   0  0
    7.3221   -3.0635    0.0000 N   0  0
    4.2506    0.5865    0.0000 C   0  0
    3.1277    1.5822    0.0000 C   0  0
    3.3676    2.7580    0.0000 C   0  0
    1.2990   -0.7500    0.0000 C   0  0
    1.2990    0.7500    0.0000 C   0  0
    0.0000    1.5000    0.0000 C   0  0
   -1.2990    0.7500    0.0000 C   0  0
   -1.2990   -0.7500    0.0000 C   0  0
    0.0000   -1.5000    0.0000 C   0  0
    8.8153   -2.9121    0.0000 C   0  0
    9.6951   -4.1270    0.0000 C   0  0
   11.1872   -3.9726    0.0000 C   0  0
   11.7995   -2.6033    0.0000 C   0  0
   10.9198   -1.3883    0.0000 C   0  0
    9.4277   -1.5427    0.0000 C   0  0
    9.2053   -5.2225    0.0000 C   0  0
   11.5324   -0.0183    0.0000 S   0  0
   10.8284    0.9535    0.0000 O   0  0
   12.0218    1.0774    0.0000 O   0  0
   13.0252    0.1371    0.0000 N   0  0
   13.5151    1.2326    0.0000 C   0  0
   13.7293   -0.8346    0.0000 C   0  0
  1  2  1  0
  2  3  2  0
  3  4  1  0
  4  5  2  0
  1  5  1  0
  6  7  2  0
  6  8  1  0
  4  6  1  0
  9 10  1  0
 10 11  1  0
  5  9  1  0
 12 13  1  0
 13 14  2  0
 14 15  1  0
 15 16  2  0
 16 17  1  0
 12 17  2  0
  1 12  1  0
 18 19  1  0
 19 20  2  0
 20 21  1  0
 21 22  2  0
 22 23  1  0
 18 23  2  0
 19 24  1  0
 25 26  2  0
 25 27  2  0
 25 28  1  0
 28 29  1  0
 28 30  1  0
 22 25  1  0
  8 18  1  0
M  END