
  SciTegic11201309402D

110118  0  0  0  0            999 V2000
   -1.5075   -7.6971    0.0000 C   0  0
   -2.2945   -9.1528    0.0000 O   0  0
   12.0860   -9.1213    0.0000 C   0  0
   12.9110   -9.1246    0.0000 N   0  0
   11.6706   -9.8341    0.0000 O   0  0
   13.3206   -9.8408    0.0000 C   0  0  2  0  0  0
   14.1456   -9.8441    0.0000 C   0  0
   12.9052  -10.5536    0.0000 C   0  0  1  0  0  0
   12.0802  -10.5502    0.0000 C   0  0
   13.3148  -11.2697    0.0000 O   0  0
   14.5552  -10.5603    0.0000 N   0  0
   14.5610   -9.1314    0.0000 O   0  0
   10.8566   -8.4009    0.0000 N   0  0
   11.6769   -8.4054    0.0000 C   0  0  1  0  0  0
   11.9345   -7.6264    0.0000 C   0  0
   11.2732   -7.1406    0.0000 C   0  0
   10.6070   -7.6195    0.0000 C   0  0
   15.3802  -10.5637    0.0000 C   0  0  2  0  0  0
   15.7898  -11.2798    0.0000 C   0  0
   15.7956   -9.8509    0.0000 C   0  0
   15.3744  -11.9926    0.0000 O   0  0
   16.6123  -11.2831    0.0000 N   0  0
   16.6050  -12.1068    0.0000 C   0  0
   17.3858  -12.3731    0.0000 C   0  0
   17.8804  -11.7127    0.0000 C   0  0
   17.4054  -11.0368    0.0000 C   0  0  1  0  0  0
   17.7946  -10.3093    0.0000 C   0  0
   18.6184  -10.2827    0.0000 N   0  0
   17.3592   -9.6086    0.0000 O   0  0
   18.8978  -11.0582    0.0000 C   0  0
   19.7225  -11.0343    0.0000 C   0  0
   19.9545  -10.2425    0.0000 C   0  0
   19.2736   -9.7761    0.0000 C   0  0  1  0  0  0
   18.9835   -9.0037    0.0000 C   0  0
   19.5059   -8.3578    0.0000 N   0  0
   18.1696   -8.8688    0.0000 O   0  0
   12.3206   -9.8367    0.0000 H   0  0
   10.4468   -9.1170    0.0000 C   0  0
    9.6218   -9.1202    0.0000 C   0  0  1  0  0  0
   10.8621   -9.8298    0.0000 O   0  0
    9.2066   -8.4073    0.0000 N   0  0
    9.2121   -9.8362    0.0000 C   0  0
   19.1031   -7.6380    0.0000 C   0  0  2  0  0  0
   18.2782   -7.6264    0.0000 C   0  0
   19.5247   -6.9295    0.0000 C   0  0
   20.3496   -6.9155    0.0000 C   0  0
   20.7742   -7.6228    0.0000 C   0  0
   20.3754   -8.3453    0.0000 O   0  0
   21.6006   -7.6099    0.0000 O   0  0
   17.8754   -6.9063    0.0000 N   0  0
   17.8557   -8.3350    0.0000 O   0  0
   18.1954   -6.1448    0.0000 C   0  0
   19.0142   -6.0445    0.0000 C   0  0
   19.3368   -5.2852    0.0000 N   0  0
   19.5106   -6.7035    0.0000 O   0  0
    9.6274  -10.5491    0.0000 C   0  0
    8.3816   -8.4105    0.0000 C   0  0
    7.9663   -7.6977    0.0000 C   0  0
    7.9719   -9.1266    0.0000 O   0  0
    6.4199   -7.2983    0.0000 C   0  0
    5.7125   -7.7227    0.0000 C   0  0
    6.4061   -6.4734    0.0000 O   0  0
    4.9912   -7.3222    0.0000 C   0  0
    4.2837   -7.7466    0.0000 C   0  0
    3.5624   -7.3462    0.0000 C   0  0
    2.8550   -7.7706    0.0000 N   0  0
    2.1337   -7.3701    0.0000 C   0  0
    1.4262   -7.7945    0.0000 N   0  0
    2.1199   -6.5452    0.0000 S   0  0
    0.7050   -7.3940    0.0000 C   0  0
    0.6964   -6.5715    0.0000 C   0  0
   -0.0240   -6.1711    0.0000 C   0  0
    0.0050   -7.8214    0.0000 C   0  0
   -0.7159   -7.4247    0.0000 C   0  0
   -0.7318   -6.5910    0.0000 C   0  0
   -1.5296   -6.3483    0.0000 C   0  0
   -2.0069   -7.0322    0.0000 O   0  0
   -1.7994   -5.5687    0.0000 O   0  0
   -1.0703   -8.3986    0.0000 C   0  0
   -1.4683   -9.1264    0.0000 C   0  0
   -1.0372   -9.8329    0.0000 C   0  0
   -0.2081   -9.8128    0.0000 C   0  0
    0.1880   -9.0803    0.0000 C   0  0
   -0.2455   -8.3768    0.0000 C   0  0
   -2.7272   -8.4466    0.0000 C   0  0
   -2.3346   -7.7240    0.0000 C   0  0
   -2.7640   -7.0248    0.0000 C   0  0
   -3.5858   -7.0469    0.0000 C   0  0
   -3.9765   -7.7742    0.0000 C   0  0
   -3.5448   -8.4705    0.0000 C   0  0
    0.2229  -10.5163    0.0000 O   0  0
   -4.8011   -7.7998    0.0000 O   0  0
    9.2177  -11.2652    0.0000 C   0  0
    8.3909  -11.2695    0.0000 O   0  0
    9.6312  -11.9792    0.0000 O   0  0
   17.0505   -6.9016    0.0000 C   0  0
   16.6420   -6.1848    0.0000 C   0  0
   15.8170   -6.1801    0.0000 C   0  0
   15.4005   -6.8923    0.0000 C   0  0
   14.5005   -6.8876    0.0000 C   0  0
   14.4699   -6.1415    0.0000 C   0  0
    7.1407   -7.7020    0.0000 N   0  0
   13.5282   -5.6046    0.0000 C   0  0
    7.5433   -6.9786    0.0000 C   0  0
    8.3682   -6.9657    0.0000 C   0  0
    8.7695   -6.2449    0.0000 C   0  0
   11.5361   -5.6071    0.0000 C   0  0
   20.0607   -9.1592    0.0000 H   0  0
   18.4036  -10.9762    0.0000 H   0  0
   12.6719   -8.3057    0.0000 H   0  0
 19 22  1  0
 44 51  2  0
 22 23  1  0
 50 52  1  0
  6  8  1  0
 52 53  1  0
  1 79  1  0
 53 54  1  0
  8  9  1  6
 53 55  2  0
 85  2  1  0
 42 56  1  0
 23 24  1  0
 41 57  1  0
 24 25  1  0
 57 58  1  0
 25 26  1  0
 57 59  2  0
 58102  1  0
 26 22  1  0
102 60  1  0
  8 10  1  0
 60 61  1  0
 26 27  1  0
 60 62  2  0
  2 80  1  0
 61 63  1  0
 27 28  1  0
 63 64  1  0
  7 11  1  0
 64 65  1  0
 27 29  2  0
 65 66  1  0
 28 30  1  0
 66 67  1  0
 67 68  1  0
  7 12  2  0
 67 69  2  0
 13 14  1  0
 68 70  1  0
 14  3  1  0
 70 71  2  0
 30 31  1  0
 71 72  1  0
 72 75  2  0
 31 32  1  0
 74 73  2  0
 73 70  1  0
 74 75  1  0
 32 33  1  0
 33 28  1  0
 33 34  1  0
 75 76  1  0
 76 77  1  0
 77  1  1  0
  1 74  1  0
  3  4  1  0
 76 78  2  0
 34 35  1  0
 79 80  2  0
 34 36  2  0
 80 81  1  0
  3  5  2  0
 81 82  2  0
  6 37  1  1
 82 83  1  0
 14 15  1  0
 83 84  2  0
 84 79  1  0
 13 38  1  0
 15 16  1  0
 85 86  2  0
 38 39  1  0
 86 87  1  0
 16 17  1  0
 87 88  2  0
 38 40  2  0
 88 89  1  0
 17 13  1  0
 89 90  2  0
 90 85  1  0
 39 41  1  0
 82 91  1  0
  1 86  1  0
 89 92  1  0
 39 42  1  6
 56 93  1  0
 11 18  1  0
 35 43  1  0
 93 94  1  0
 93 95  2  0
  4  6  1  0
 50 96  1  0
 43 44  1  0
 96 97  1  0
 18 19  1  0
 97 98  1  0
 43 45  1  6
 98 99  1  0
 99100  1  0
 45 46  1  0
100101  1  0
 18 20  1  1
 46 47  1  0
101103  1  0
  6  7  1  0
102104  1  0
 19 21  2  0
104105  1  0
 47 48  1  0
105106  1  0
 47 49  2  0
106107  1  0
107103  2  0
 44 50  1  0
 33108  1  1
 26109  1  1
 14110  1  6
M  END