
          11280715112D 1   1.00000     0.00000     0

 28 30  0     0  0            999 V2000
    2.2917    1.3208    0.0000 C   0  0  0  0  0  0           0  0  0
    3.5917    1.0458    0.0000 N   0  0  0  0  0  0           0  0  0
    3.0417    1.6583    0.0000 C   0  0  0  0  0  0           0  0  0
    2.3792    0.5000    0.0000 C   0  0  0  0  0  0           0  0  0
    3.1875    0.3333    0.0000 O   0  0  0  0  0  0           0  0  0
    1.5750    1.7333    0.0000 C   0  0  0  0  0  0           0  0  0
   -0.5708    0.4833    0.0000 C   0  0  0  0  0  0           0  0  0
    3.2125    2.4708    0.0000 C   0  0  0  0  0  0           0  0  0
    1.7667   -0.0542    0.0000 O   0  0  0  0  0  0           0  0  0
   -1.2833    0.0708    0.0000 N   0  0  3  0  0  0           0  0  0
    0.8625    1.3125    0.0000 C   0  0  0  0  0  0           0  0  0
   -0.5708    1.3125    0.0000 C   0  0  0  0  0  0           0  0  0
    0.1417    0.0708    0.0000 C   0  0  0  0  0  0           0  0  0
    0.1417    1.7250    0.0000 C   0  0  0  0  0  0           0  0  0
    0.8625    0.4833    0.0000 C   0  0  0  0  0  0           0  0  0
   -1.9958    0.4833    0.0000 C   0  0  0  0  0  0           0  0  0
   -1.2833   -0.7542    0.0000 C   0  0  0  0  0  0           0  0  0
    3.9917    2.7250    0.0000 C   0  0  0  0  0  0           0  0  0
    2.5917    3.0208    0.0000 C   0  0  0  0  0  0           0  0  0
   -1.9958    1.3083    0.0000 C   0  0  0  0  0  0           0  0  0
   -0.5708   -1.1667    0.0000 C   0  0  0  0  0  0           0  0  0
   -2.7083    1.7208    0.0000 C   0  0  0  0  0  0           0  0  0
   -0.5708   -1.9917    0.0000 C   0  0  0  0  0  0           0  0  0
   -2.7083    2.5458    0.0000 C   0  0  0  0  0  0           0  0  0
    0.1417   -2.4042    0.0000 C   0  0  0  0  0  0           0  0  0
    2.7625    3.8208    0.0000 C   0  0  0  0  0  0           0  0  0
    4.1625    3.5333    0.0000 C   0  0  0  0  0  0           0  0  0
    3.5500    4.0750    0.0000 C   0  0  0  0  0  0           0  0  0
  2  3  2  0     0  0
  3  1  1  0     0  0
  4  1  1  0     0  0
  5  4  1  0     0  0
  6  1  2  0     0  0
  7 13  1  0     0  0
  8  3  1  0     0  0
  9  4  2  0     0  0
 10  7  1  0     0  0
 11  6  1  0     0  0
 12 14  1  0     0  0
 13 15  2  0     0  0
 14 11  2  0     0  0
 15 11  1  0     0  0
 16 10  1  0     0  0
 17 10  1  0     0  0
 18  8  2  0     0  0
 19  8  1  0     0  0
 20 16  1  0     0  0
 21 17  1  0     0  0
 22 20  1  0     0  0
 23 21  1  0     0  0
 24 22  1  0     0  0
 25 23  1  0     0  0
 26 19  2  0     0  0
 27 18  1  0     0  0
 28 26  1  0     0  0
  2  5  1  0     0  0
  7 12  2  0     0  0
 28 27  2  0     0  0
M  END