
  SciTegic06051313522D

 31 34  0  0  0  0            999 V2000
   10.2193   -2.0384    0.0000 C   0  0
   10.2182   -2.8658    0.0000 C   0  0
   10.9330   -3.2786    0.0000 C   0  0
   11.6494   -2.8653    0.0000 C   0  0
   11.6466   -2.0348    0.0000 C   0  0
   10.9312   -1.6256    0.0000 C   0  0
   12.3595   -1.6196    0.0000 C   0  0
   13.0755   -2.0294    0.0000 C   0  0
   13.0752   -2.8520    0.0000 C   0  0
   13.7904   -3.2618    0.0000 C   0  0
   14.5043   -2.8465    0.0000 C   0  0
   14.4985   -2.0173    0.0000 C   0  0
   13.7828   -1.6113    0.0000 N   0  0
   12.3645   -3.2767    0.0000 O   0  0
   12.3658   -4.1017    0.0000 C   0  0
   13.0810   -4.5130    0.0000 C   0  0
   13.0776   -5.3354    0.0000 C   0  0
   13.7919   -5.7467    0.0000 C   0  0
   14.5067   -5.3330    0.0000 C   0  0
   14.5027   -4.5037    0.0000 C   0  0
   13.7879   -4.0962    0.0000 C   0  0
   12.3625   -5.7468    0.0000 F   0  0
   15.2224   -5.7434    0.0000 Cl  0  0
    9.5048   -1.6261    0.0000 Cl  0  0
   15.2122   -1.5989    0.0000 C   0  0
   15.9296   -2.0062    0.0000 N   0  0
   15.2061   -0.7739    0.0000 O   0  0
   15.9356   -2.8311    0.0000 C   0  0
   16.6531   -3.2384    0.0000 C   0  0
   17.0690   -3.9469    0.0000 C   0  0
   17.4763   -3.2294    0.0000 C   0  0
  1  2  2  0
  2  3  1  0
  3  4  2  0
  4  5  1  0
  5  6  2  0
  6  1  1  0
  5  7  1  0
  7  8  1  0
  8  9  2  0
  9 10  1  0
 10 11  2  0
 11 12  1  0
 12 13  2  0
 13  8  1  0
  4 14  1  0
 14 15  1  0
 15 16  1  0
 16 17  2  0
 17 18  1  0
 18 19  2  0
 19 20  1  0
 20 21  2  0
 21 16  1  0
 17 22  1  0
 19 23  1  0
  1 24  1  0
 25 26  1  0
 25 27  2  0
 12 25  1  0
 26 28  1  0
 28 29  1  0
 30 29  1  0
 31 30  1  0
 29 31  1  0
M  END