
          11280715132D 1   1.00000     0.00000     0

 21 23  0     0  0            999 V2000
    7.5125   -5.4542    0.0000 C   0  0  0  0  0  0           0  0  0
    8.1917   -5.0625    0.0000 C   0  0  0  0  0  0           0  0  0
    8.8667   -5.4542    0.0000 N   0  0  0  0  0  0           0  0  0
    7.5125   -6.2417    0.0000 C   0  0  0  0  0  0           0  0  0
    6.8292   -5.0625    0.0000 C   0  0  0  0  0  0           0  0  0
    6.8292   -6.6292    0.0000 C   0  0  0  0  0  0           0  0  0
    9.5417   -5.0625    0.0000 C   0  0  3  0  0  0           0  0  0
   10.8917   -5.0667    0.0000 N   0  0  3  0  0  0           0  0  0
    6.1500   -5.4542    0.0000 C   0  0  0  0  0  0           0  0  0
    6.1500   -6.2417    0.0000 C   0  0  0  0  0  0           0  0  0
   10.2167   -5.4542    0.0000 C   0  0  0  0  0  0           0  0  0
    8.1917   -4.2750    0.0000 O   0  0  0  0  0  0           0  0  0
    9.5417   -4.2792    0.0000 C   0  0  3  0  0  0           0  0  0
   10.2250   -3.8917    0.0000 C   0  0  0  0  0  0           0  0  0
    9.9292   -4.9542    0.0000 C   0  0  0  0  0  0           0  0  0
   10.9042   -4.2875    0.0000 C   0  0  0  0  0  0           0  0  0
   10.6000   -4.5667    0.0000 C   0  0  0  0  0  0           0  0  0
    5.4667   -6.6292    0.0000 N   0  0  0  0  0  0           0  0  0
    5.4667   -5.0625    0.0000 I   0  0  0  0  0  0           0  0  0
    8.1917   -6.6292    0.0000 O   0  0  0  0  0  0           0  0  0
    8.1917   -7.4167    0.0000 C   0  0  0  0  0  0           0  0  0
  2  1  1  0     0  0
  3  2  1  0     0  0
  4  1  1  0     0  0
  5  1  2  0     0  0
  6  4  2  0     0  0
  7  3  1  0     0  0
  8 11  1  0     0  0
  9  5  1  0     0  0
 10  9  2  0     0  0
 11  7  1  0     0  0
 12  2  2  0     0  0
 13  7  1  0     0  0
 14 13  1  0     0  0
 15 13  1  0     0  0
 16 14  1  0     0  0
 17 15  1  0     0  0
 18 10  1  0     0  0
 19  9  1  0     0  0
 20  4  1  0     0  0
 21 20  1  0     0  0
 10  6  1  0     0  0
  8 17  1  0     0  0
 16  8  1  0     0  0
M  END