
  SciTegic05171617292D

 20 22  0  0  0  0            999 V2000
   -7.4735    7.2872    0.0000 N   0  0
   -6.7630    6.3202    0.0000 C   0  0
   -5.2712    6.4841    0.0000 C   0  0
   -4.3841    5.2767    0.0000 N   0  0
   -2.8841    5.2815    0.0000 C   0  0
   -2.1819    6.2546    0.0000 S   0  0
   -2.4160    3.8564    0.0000 S   0  0
   -3.6267    2.9927    0.0000 C   0  0
   -3.6187    1.4919    0.0000 C   0  0
   -2.3155    0.7475    0.0000 C   0  0
   -2.3155   -0.7475    0.0000 C   0  0
   -1.0028   -1.5132    0.0000 C   0  0
    0.2917   -0.7475    0.0000 C   0  0
    1.7138   -1.2033    0.0000 O   0  0
    2.5889    0.0182    0.0000 C   0  0
    1.7138    1.2033    0.0000 O   0  0
    0.2917    0.7475    0.0000 C   0  0
   -1.0028    1.5132    0.0000 C   0  0
   -4.8430    3.8486    0.0000 C   0  0
   -5.9808    3.4673    0.0000 O   0  0
  1  2  1  0
  2  3  1  0
  3  4  1  0
  4  5  1  0
  5  6  2  0
  5  7  1  0
  7  8  1  0
  8  9  2  0
  9 10  1  0
 10 11  2  0
 11 12  1  0
 12 13  2  0
 13 14  1  0
 14 15  1  0
 15 16  1  0
 16 17  1  0
 13 17  1  0
 17 18  2  0
 10 18  1  0
  8 19  1  0
  4 19  1  0
 19 20  2  0
M  END