
  SciTegic12231509382D

 12 12  0  0  0  0            999 V2000
    2.1424    0.0000    0.0000 O   0  0
    2.8609   -1.2327    0.0000 O   0  0
    2.1522   -3.2960    0.0000 O   0  0
    2.8510   -2.0632    0.0000 O   0  0
    1.4304   -1.2327    0.0000 C   0  0
    1.4304   -2.0632    0.0000 C   0  0
    2.1424   -0.8273    0.0000 C   0  0
    2.1424   -2.4686    0.0000 C   0  0
    0.7119   -0.8273    0.0000 C   0  0
    0.7119   -2.4686    0.0000 C   0  0
    0.0000   -1.2327    0.0000 C   0  0
    0.0000   -2.0632    0.0000 C   0  0
  1  7  1  0
  2  7  2  0
  3  8  2  0
  4  8  1  0
  5  6  2  0
  5  7  1  0
  5  9  1  0
  6  8  1  0
  6 10  1  0
  9 11  2  0
 10 12  2  0
 11 12  1  0
M  END