
  SciTegic12171313022D

 32 35  0  0  0  0            999 V2000
   30.1042  -12.6358    0.0000 C   0  0
   30.1031  -13.4632    0.0000 C   0  0
   30.8179  -13.8761    0.0000 C   0  0
   31.5343  -13.4627    0.0000 C   0  0
   31.5315  -12.6322    0.0000 C   0  0
   30.8161  -12.2231    0.0000 C   0  0
   29.3883  -13.8751    0.0000 N   0  0
   29.3876  -14.7001    0.0000 C   0  0
   28.6728  -15.1121    0.0000 N   0  0
   30.1017  -15.1132    0.0000 O   0  0
   28.6722  -15.9371    0.0000 C   0  0
   28.0087  -16.4199    0.0000 N   0  0
   28.2630  -17.2047    0.0000 N   0  0
   29.0881  -17.2054    0.0000 C   0  0
   29.3435  -16.4210    0.0000 C   0  0
   29.5725  -17.8732    0.0000 C   0  0
   29.2365  -18.6266    0.0000 C   0  0
   30.3931  -17.7875    0.0000 C   0  0
   29.9806  -18.5817    0.0000 C   0  0
   27.2128  -16.2027    0.0000 C   0  0
   27.0080  -15.4066    0.0000 C   0  0
   26.2130  -15.1894    0.0000 C   0  0
   25.6260  -15.7704    0.0000 C   0  0
   25.8397  -16.5717    0.0000 C   0  0
   26.6344  -16.7852    0.0000 C   0  0
   24.8298  -15.5544    0.0000 C   0  0
   32.2413  -12.2183    0.0000 C   0  0
   32.9576  -12.6298    0.0000 C   0  0
   33.6700  -12.2153    0.0000 N   0  0
   33.6674  -11.3895    0.0000 C   0  0
   32.9463  -10.9798    0.0000 C   0  0
   32.2369  -11.3967    0.0000 C   0  0
  1  2  2  0
  2  3  1  0
  3  4  2  0
  4  5  1  0
  5  6  2  0
  6  1  1  0
  2  7  1  0
  7  8  1  0
  8  9  1  0
  8 10  2  0
  9 11  1  0
 11 12  1  0
 12 13  1  0
 13 14  2  0
 14 15  1  0
 15 11  2  0
 14 16  1  0
 16 17  1  0
 16 18  1  0
 16 19  1  0
 12 20  1  0
 20 21  2  0
 21 22  1  0
 22 23  2  0
 23 24  1  0
 24 25  2  0
 25 20  1  0
 23 26  1  0
 27 28  2  0
 28 29  1  0
 29 30  2  0
 30 31  1  0
 31 32  2  0
 32 27  1  0
  5 27  1  0
M  END