
  SciTegic01161211242D

 36 39  0  0  0  0            999 V2000
    4.0470    0.5915    0.0000 C   0  0
    4.8734    0.5924    0.0000 C   0  0
    5.1299   -0.1925    0.0000 C   0  0
    4.4603   -0.6795    0.0000 N   0  0
    3.7950   -0.1925    0.0000 N   0  0
    5.2883    1.3020    0.0000 C   0  0
    6.1148    1.2948    0.0000 C   0  0
    6.5324    2.0058    0.0000 C   0  0
    6.1249    2.7245    0.0000 C   0  0
    5.2952    2.7277    0.0000 C   0  0
    4.8812    2.0161    0.0000 C   0  0
    3.6556    1.3129    0.0000 C   0  0
    4.0906    2.0156    0.0000 C   0  0
    3.6997    2.7415    0.0000 C   0  0
    2.8737    2.7660    0.0000 C   0  0
    2.4404    2.0585    0.0000 C   0  0
    2.8340    1.3354    0.0000 C   0  0
    2.4810    3.4921    0.0000 Cl  0  0
    4.4590   -1.5049    0.0000 C   0  0
    3.7436   -1.9165    0.0000 N   0  0
    3.7424   -2.7418    0.0000 S   0  0
    3.0270   -3.1534    0.0000 C   0  0
    2.3152   -2.7371    0.0000 C   0  0
    1.6003   -3.1481    0.0000 C   0  0
    1.5986   -3.9743    0.0000 C   0  0
    2.3178   -4.3880    0.0000 C   0  0
    3.0298   -3.9747    0.0000 C   0  0
    4.1477   -3.4516    0.0000 O   0  0
    4.4520   -2.3218    0.0000 O   0  0
    0.8838   -4.3869    0.0000 Cl  0  0
    5.1732   -1.9187    0.0000 N   0  0
    5.8887   -1.5070    0.0000 C   0  0
    6.6028   -1.9208    0.0000 C   0  0
    7.3182   -1.5092    0.0000 O   0  0
    6.1820   -2.6304    0.0000 C   0  0
    7.0074   -2.6304    0.0000 C   0  0
  1 12  1  0
  8  9  2  0
 15 18  1  0
  4  5  1  0
  4 19  1  0
  9 10  1  0
 19 20  2  0
  5  1  2  0
 20 21  1  0
 10 11  2  0
 21 22  1  0
 11  6  1  0
 22 23  2  0
  2  6  1  0
 23 24  1  0
  1  2  1  0
 24 25  2  0
 25 26  1  0
 12 13  2  0
 26 27  2  0
 27 22  1  0
  6  7  2  0
 21 28  2  0
 13 14  1  0
 21 29  2  0
  2  3  1  0
 25 30  1  0
 14 15  2  0
 19 31  1  0
  7  8  1  0
 31 32  1  0
 15 16  1  0
 32 33  1  0
  3  4  1  0
 33 34  1  0
 16 17  2  0
 33 35  1  0
 17 12  1  0
 33 36  1  0
M  END