
  SciTegic05171617272D

 20 21  0  0  1  0            999 V2000
    0.8586   -6.0621    0.0000 C   0  0
    1.6582   -5.1673    0.0000 S   0  0
    3.1276   -5.4730    0.0000 C   0  0
    4.1277   -4.3539    0.0000 C   0  0  1  0  0  0
    3.6552   -2.9294    0.0000 N   0  0
    2.1855   -2.6254    0.0000 C   0  0
    1.7138   -1.2033    0.0000 C   0  0
    2.5889    0.0182    0.0000 C   0  0
    1.7138    1.2033    0.0000 N   0  0
    0.2917    0.7475    0.0000 C   0  0
   -1.0028    1.5132    0.0000 C   0  0
   -0.9991    2.7132    0.0000 O   0  0
   -2.3155    0.7475    0.0000 N   0  0
   -2.3155   -0.7475    0.0000 C   0  0
   -1.0028   -1.5132    0.0000 N   0  0
    0.2917   -0.7475    0.0000 C   0  0
    5.5974   -4.6579    0.0000 C   0  0  1  0  0  0
    6.3952   -3.7615    0.0000 O   0  0
    6.0699   -6.0824    0.0000 C   0  0
    7.2450   -6.3255    0.0000 O   0  0
  1  2  1  0
  2  3  1  0
  3  4  1  0
  4  5  1  1
  5  6  1  0
  6  7  1  0
  7  8  2  0
  8  9  1  0
  9 10  1  0
 10 11  2  0
 11 12  1  0
 11 13  1  0
 13 14  2  0
 14 15  1  0
 15 16  2  0
  7 16  1  0
 10 16  1  0
  4 17  1  0
 17 18  1  1
 17 19  1  0
 19 20  1  0
M  END