
          11280715082D 1   1.00000     0.00000     0

 16 17  0     0  0            999 V2000
   -1.5750   -1.1000    0.0000 C   0  0  0  0  0  0           0  0  0
   -1.5750   -0.5000    0.0000 N   0  0  3  0  0  0           0  0  0
   -1.0583   -1.4000    0.0000 C   0  0  0  0  0  0           0  0  0
   -1.0583   -2.0000    0.0000 C   0  0  0  0  0  0           0  0  0
   -1.2708    0.4250    0.0000 N   0  0  0  0  0  0           0  0  0
   -1.5750   -2.3125    0.0000 C   0  0  0  0  0  0           0  0  0
   -1.0875   -0.1417    0.0000 C   0  0  0  0  0  0           0  0  0
   -2.0583   -0.1500    0.0000 C   0  0  0  0  0  0           0  0  0
   -2.0958   -1.4000    0.0000 O   0  0  0  0  0  0           0  0  0
   -1.8708    0.4208    0.0000 C   0  0  0  0  0  0           0  0  0
   -1.5708   -2.9125    0.0000 O   0  0  0  0  0  0           0  0  0
   -2.1000   -2.0167    0.0000 O   0  0  0  0  0  0           0  0  0
   -0.5375   -1.0917    0.0000 C   0  0  0  0  0  0           0  0  0
   -0.5375   -2.3000    0.0000 C   0  0  0  0  0  0           0  0  0
   -0.0125   -1.4000    0.0000 C   0  0  0  0  0  0           0  0  0
   -0.0125   -2.0042    0.0000 C   0  0  0  0  0  0           0  0  0
  2  1  1  0     0  0
  3  1  1  0     0  0
  4  3  2  0     0  0
  5  7  2  0     0  0
  6  4  1  0     0  0
  7  2  1  0     0  0
  8  2  1  0     0  0
  9  1  2  0     0  0
 10  8  2  0     0  0
 11  6  2  0     0  0
 12  6  1  0     0  0
 13  3  1  0     0  0
 14  4  1  0     0  0
 15 13  2  0     0  0
 16 15  1  0     0  0
  5 10  1  0     0  0
 14 16  2  0     0  0
M  END