
          11280715202D 1   1.00000     0.00000     0

 27 27  0     0  0            999 V2000
   -1.0708   -2.7542    0.0000 N   0  0  0  0  0  0           0  0  0
   -1.4833   -4.0292    0.0000 N   0  0  0  0  0  0           0  0  0
   -1.7375   -3.2417    0.0000 C   0  0  0  0  0  0           0  0  0
   -0.4083   -3.2417    0.0000 C   0  0  0  0  0  0           0  0  0
   10.2167   -1.8625    0.0000 C   0  0  0  0  0  0           0  0  0
   10.2042   -3.5125    0.0000 C   0  0  0  0  0  0           0  0  0
    9.5042   -2.2750    0.0000 C   0  0  0  0  0  0           0  0  0
    9.5000   -3.1000    0.0000 C   0  0  0  0  0  0           0  0  0
    5.5292   -2.8250    0.0000 C   0  0  0  0  0  0           0  0  0
    6.1417   -3.3792    0.0000 N   0  0  0  0  0  0           0  0  0
    4.7417   -3.0792    0.0000 C   0  0  0  0  0  0           0  0  0
   -0.6583   -4.0292    0.0000 C   0  0  0  0  0  0           0  0  0
   10.2167   -1.0375    0.0000 O   0  0  0  0  0  0           0  0  0
   10.2042   -4.3375    0.0000 O   0  0  0  0  0  0           0  0  0
    4.5667   -3.8875    0.0000 C   0  0  0  0  0  0           0  0  0
    4.1250   -2.5250    0.0000 C   0  0  0  0  0  0           0  0  0
    3.1750   -3.5875    0.0000 C   0  0  0  0  0  0           0  0  0
   10.9250   -3.1042    0.0000 O   0  0  0  0  0  0           0  0  0
   10.9292   -2.2792    0.0000 O   0  0  0  0  0  0           0  0  0
    6.9250   -3.1167    0.0000 O   0  0  0  0  0  0           0  0  0
    3.3417   -2.7792    0.0000 C   0  0  0  0  0  0           0  0  0
    3.7875   -4.1417    0.0000 C   0  0  0  0  0  0           0  0  0
    2.3917   -3.8417    0.0000 O   0  0  0  0  0  0           0  0  0
    0.3792   -2.9875    0.0000 C   0  0  0  0  0  0           0  0  0
    5.7000   -2.0167    0.0000 C   0  0  0  0  0  0           0  0  0
    1.7792   -3.2875    0.0000 C   0  0  0  0  0  0           0  0  0
    0.9917   -3.5417    0.0000 C   0  0  0  0  0  0           0  0  0
  2  3  1  0     0  0
  3  1  2  0     0  0
  4  1  1  0     0  0
  6  8  1  0     0  0
  7  5  1  0     0  0
  8  7  2  0     0  0
  9 11  1  0     0  0
 10  9  2  0     0  0
 11 15  2  0     0  0
 12  4  2  0     0  0
 13  5  2  0     0  0
 14  6  2  0     0  0
 15 22  1  0     0  0
 16 21  2  0     0  0
 17 23  1  0     0  0
 18  6  1  0     0  0
 19  5  1  0     0  0
 20 10  1  0     0  0
 21 17  1  0     0  0
 22 17  2  0     0  0
 23 26  1  0     0  0
 24  4  1  0     0  0
 25  9  1  0     0  0
 26 27  1  0     0  0
 27 24  1  0     0  0
 12  2  1  0     0  0
 11 16  1  0     0  0
M  END