
  SciTegic09171211542D

 15 16  0  0  0  0            999 V2000
   18.7444  -10.4958    0.0000 N   0  0
   18.7432  -11.3232    0.0000 C   0  0
   19.4581  -11.7360    0.0000 N   0  0
   19.4563  -10.0830    0.0000 C   0  0
   20.1716  -10.4922    0.0000 C   0  0
   20.1724  -11.3190    0.0000 C   0  0
   20.8877  -11.7300    0.0000 C   0  0
   21.6027  -11.3152    0.0000 C   0  0
   21.5980  -10.4852    0.0000 C   0  0
   20.8821  -10.0780    0.0000 C   0  0
   19.4538   -9.2580    0.0000 N   0  0
   20.1670   -8.8434    0.0000 C   0  0
   20.1646   -8.0184    0.0000 C   0  0
   20.8778   -7.6038    0.0000 O   0  0
   20.8753   -6.7788    0.0000 C   0  0
  1  2  2  0
  7  8  2  0
  5  4  2  0
  8  9  1  0
  4  1  1  0
  9 10  2  0
 10  5  1  0
  4 11  1  0
  2  3  1  0
 11 12  1  0
  5  6  1  0
 12 13  1  0
  3  6  2  0
 13 14  1  0
  6  7  1  0
 14 15  1  0
M  END