
          08180812492D 1   1.00000     0.00000     0

 29 31  0     0  0            999 V2000
   12.1902   -9.1500    0.0000 C   0  0  0  0  0  0           0  0  0
   12.1891   -9.9773    0.0000 C   0  0  0  0  0  0           0  0  0
   12.9039  -10.3902    0.0000 C   0  0  0  0  0  0           0  0  0
   13.6203   -9.9769    0.0000 C   0  0  0  0  0  0           0  0  0
   13.6175   -9.1463    0.0000 C   0  0  0  0  0  0           0  0  0
   12.9021   -8.7372    0.0000 C   0  0  0  0  0  0           0  0  0
   11.4744  -10.3890    0.0000 C   0  0  0  0  0  0           0  0  0
   10.7319  -10.0294    0.0000 N   0  0  3  0  0  0           0  0  0
   11.4736  -11.2143    0.0000 O   0  0  0  0  0  0           0  0  0
   14.3304   -8.7311    0.0000 O   0  0  0  0  0  0           0  0  0
   14.3273   -7.9061    0.0000 C   0  0  0  0  0  0           0  0  0
   15.0420   -7.4958    0.0000 C   0  0  0  0  0  0           0  0  0
   15.0392   -6.6716    0.0000 C   0  0  0  0  0  0           0  0  0
   14.3226   -6.2609    0.0000 C   0  0  0  0  0  0           0  0  0
   13.6074   -6.6806    0.0000 C   0  0  0  0  0  0           0  0  0
   13.6137   -7.5034    0.0000 C   0  0  0  0  0  0           0  0  0
   14.3355  -10.3882    0.0000 C   0  0  0  0  0  0           0  0  0
   15.0493   -9.9746    0.0000 N   0  0  0  0  0  0           0  0  0
   15.7644  -10.3860    0.0000 C   0  0  0  0  0  0           0  0  0
   10.0880  -10.5420    0.0000 C   0  0  0  0  0  0           0  0  0
    9.2819  -10.3580    0.0000 C   0  0  0  0  0  0           0  0  0
   10.7327   -9.2053    0.0000 C   0  0  0  0  0  0           0  0  0
    8.9217   -9.6172    0.0000 C   0  0  0  0  0  0           0  0  0
   10.0865   -8.6901    0.0000 C   0  0  0  0  0  0           0  0  0
    9.2818   -8.8762    0.0000 N   0  0  3  0  0  0           0  0  0
    8.7676   -8.2310    0.0000 C   0  0  3  0  0  0           0  0  0
    9.0693   -7.4631    0.0000 C   0  0  0  0  0  0           0  0  0
    7.9518   -8.3536    0.0000 C   0  0  0  0  0  0           0  0  0
   15.7523   -6.2567    0.0000 Cl  0  0  0  0  0  0           0  0  0
  2  7  1  0     0  0
 14 15  1  0     0  0
  3  4  2  0     0  0
 15 16  2  0     0  0
 16 11  1  0     0  0
  7  8  1  0     0  0
  4 17  1  0     0  0
 17 18  1  0     0  0
  7  9  2  0     0  0
 18 19  1  0     0  0
  4  5  1  0     0  0
  8 20  1  0     0  0
  5 10  1  0     0  0
 20 21  1  0     0  0
  2  3  1  0     0  0
  8 22  1  0     0  0
 10 11  1  0     0  0
 21 23  1  0     0  0
  5  6  2  0     0  0
 22 24  1  0     0  0
 11 12  2  0     0  0
 23 25  1  0     0  0
 24 25  1  0     0  0
  6  1  1  0     0  0
 25 26  1  0     0  0
 12 13  1  0     0  0
 26 27  1  0     0  0
  1  2  2  0     0  0
 26 28  1  0     0  0
 13 14  2  0     0  0
 13 29  1  0     0  0
M  END