
          11280715472D 1   1.00000     0.00000     0

 25 27  0     0  0            999 V2000
    1.9917    2.6875    0.0000 N   0  0  3  0  0  0           0  0  0
   -0.8625   -2.2500    0.0000 N   0  0  3  0  0  0           0  0  0
   -2.6458   -2.7750    0.0000 N   0  0  3  0  0  0           0  0  0
    1.2792    3.1083    0.0000 C   0  0  0  0  0  0           0  0  0
    1.9917    1.8625    0.0000 C   0  0  0  0  0  0           0  0  0
    0.5542    2.6875    0.0000 C   0  0  0  0  0  0           0  0  0
    1.2792    1.4583    0.0000 C   0  0  0  0  0  0           0  0  0
   -0.1458   -1.8417    0.0000 C   0  0  0  0  0  0           0  0  0
   -0.1583    1.4625    0.0000 O   0  0  0  0  0  0           0  0  0
    2.7042    3.1083    0.0000 C   0  0  3  0  0  0           0  0  0
    0.5542    1.8750    0.0000 C   0  0  3  0  0  0           0  0  0
   -1.5625   -1.7750    0.0000 C   0  0  0  0  0  0           0  0  0
   -2.3333   -2.0292    0.0000 C   0  0  0  0  0  0           0  0  0
   -0.1583    0.6458    0.0000 C   0  0  0  0  0  0           0  0  0
   -1.4333   -3.6250    0.0000 C   0  0  0  0  0  0           0  0  0
   -0.1458   -1.0167    0.0000 C   0  0  0  0  0  0           0  0  0
   -0.8083   -3.0792    0.0000 C   0  0  0  0  0  0           0  0  0
   -2.2708   -3.4750    0.0000 C   0  0  0  0  0  0           0  0  0
   -0.8583    0.2250    0.0000 C   0  0  0  0  0  0           0  0  0
    0.5667    0.2250    0.0000 C   0  0  0  0  0  0           0  0  0
    0.5667   -0.6042    0.0000 C   0  0  0  0  0  0           0  0  0
   -0.8625   -0.6042    0.0000 C   0  0  0  0  0  0           0  0  0
   -3.4625   -2.8125    0.0000 C   0  0  0  0  0  0           0  0  0
    2.7042    3.9333    0.0000 C   0  0  0  0  0  0           0  0  0
    3.4167    2.6875    0.0000 C   0  0  0  0  0  0           0  0  0
  2  8  1  0     0  0
  3 13  1  0     0  0
  4  1  1  0     0  0
  5  1  1  0     0  0
  6  4  1  0     0  0
  7  5  1  0     0  0
  8 16  1  0     0  0
  9 11  1  0     0  0
 10  1  1  0     0  0
 11  7  1  0     0  0
 12  2  1  0     0  0
 13 12  1  0     0  0
 14  9  1  0     0  0
 15 17  1  0     0  0
 16 21  2  0     0  0
 17  2  1  0     0  0
 18 15  1  0     0  0
 19 14  1  0     0  0
 20 14  2  0     0  0
 21 20  1  0     0  0
 22 19  2  0     0  0
 23  3  1  0     0  0
 24 10  1  0     0  0
 25 10  1  0     0  0
 11  6  1  0     0  0
 16 22  1  0     0  0
 18  3  1  0     0  0
M  END