
  SciTegic09261414462D

 28 30  0  0  0  0            999 V2000
    1.9136  -13.2484    0.0000 C   0  0
    1.9125  -14.0679    0.0000 C   0  0
    2.6205  -14.4769    0.0000 C   0  0
    3.3302  -14.0674    0.0000 C   0  0
    3.3273  -13.2448    0.0000 C   0  0
    2.6187  -12.8395    0.0000 C   0  0
    1.2044  -14.4759    0.0000 O   0  0
    0.4971  -14.0668    0.0000 C   0  0
   -0.2183  -14.4748    0.0000 C   0  0
    1.2058  -12.8399    0.0000 O   0  0
    0.4982  -13.2487    0.0000 C   0  0
   -0.2114  -12.8403    0.0000 C   0  0
   -0.2165  -12.0244    0.0000 O   0  0
   -0.9206  -13.2503    0.0000 O   0  0
    2.6163  -12.0223    0.0000 Br  0  0
    4.0385  -14.4749    0.0000 C   0  0
    4.7456  -14.0652    0.0000 C   0  0
    5.4908  -14.3911    0.0000 C   0  0
    6.0367  -13.7830    0.0000 O   0  0
    5.6270  -13.0759    0.0000 C   0  0
    4.8280  -13.2471    0.0000 N   0  0
    5.6640  -15.1898    0.0000 O   0  0
    5.9578  -12.3328    0.0000 C   0  0
    6.7716  -12.2472    0.0000 C   0  0
    7.1027  -11.5010    0.0000 C   0  0
    6.6212  -10.8397    0.0000 C   0  0
    5.8047  -10.9295    0.0000 C   0  0
    5.4773  -11.6759    0.0000 C   0  0
  1  2  2  0
  2  3  1  0
  3  4  2  0
  4  5  1  0
  5  6  2  0
  6  1  1  0
  2  7  1  0
  7  8  1  0
  8  9  1  0
  1 10  1  0
 10 11  1  0
 11 12  1  0
 12 13  1  0
 12 14  2  0
  6 15  1  0
  4 16  1  0
 16 17  2  0
 17 18  1  0
 18 19  1  0
 19 20  1  0
 20 21  2  0
 21 17  1  0
 18 22  2  0
 23 24  2  0
 24 25  1  0
 25 26  2  0
 26 27  1  0
 27 28  2  0
 28 23  1  0
 20 23  1  0
M  END