
  SciTegic09261414532D

 30 33  0  0  0  0            999 V2000
    6.0693   -5.9456    0.0000 C   0  0
    6.0681   -6.7730    0.0000 C   0  0
    6.7829   -7.1858    0.0000 C   0  0
    6.7811   -5.5329    0.0000 C   0  0
    7.4965   -5.9420    0.0000 C   0  0
    7.4972   -6.7688    0.0000 C   0  0
    8.2125   -7.1798    0.0000 N   0  0
    8.9275   -6.7651    0.0000 C   0  0
    8.9227   -5.9350    0.0000 C   0  0
    8.2069   -5.5279    0.0000 C   0  0
    9.6435   -7.1747    0.0000 C   0  0
    9.6347   -5.5183    0.0000 C   0  0  1  0  0  0
   10.3516   -5.9263    0.0000 C   0  0
   11.0635   -5.5095    0.0000 O   0  0
   10.3567   -6.7513    0.0000 O   0  0
    9.6296   -4.6933    0.0000 O   0  0
   10.3416   -4.2765    0.0000 C   0  0
   10.3366   -3.4515    0.0000 C   0  0
   11.0585   -4.6846    0.0000 C   0  0
   11.0539   -3.8582    0.0000 C   0  0
    8.2025   -4.7029    0.0000 C   0  0
    8.9159   -4.2923    0.0000 C   0  0
    8.9118   -3.4681    0.0000 C   0  0
    7.4876   -4.3021    0.0000 C   0  0
    7.4800   -3.4793    0.0000 C   0  0
    8.2001   -3.0596    0.0000 C   0  0
    8.1966   -2.2308    0.0000 O   0  0
    7.4747   -1.8153    0.0000 C   0  0
    6.7547   -2.2352    0.0000 C   0  0
    6.7565   -3.0703    0.0000 C   0  0
  1  2  2  0
  2  3  1  0
  3  6  2  0
  5  4  2  0
  4  1  1  0
  5  6  1  0
  6  7  1  0
  7  8  2  0
  8  9  1  0
  9 10  2  0
 10  5  1  0
  8 11  1  0
  9 12  1  0
 12 13  1  0
 13 14  1  0
 13 15  2  0
 12 16  1  6
 16 17  1  0
 17 18  1  0
 17 19  1  0
 17 20  1  0
 10 21  1  0
 21 22  2  0
 22 23  1  0
 23 26  2  0
 25 24  2  0
 24 21  1  0
 25 26  1  0
 25 30  1  0
 26 27  1  0
 27 28  1  0
 28 29  1  0
 29 30  1  0
M  END