
  SciTegic05071317012D

 10  9  0  0  0  0            999 V2000
    6.4043   -4.5459    0.0000 N   0  0
    7.1187   -4.1333    0.0000 C   0  0  2  0  0  0
    7.8332   -4.5459    0.0000 C   0  0
    7.8368   -5.3725    0.0000 O   0  0
    8.5513   -4.1350    0.0000 O   0  0
    7.1187   -3.3083    0.0000 C   0  0
    6.4043   -2.8958    0.0000 C   0  0
    6.4042   -2.0708    0.0000 C   0  0
    6.4043   -5.3709    0.0000 N   0  0
    5.6896   -1.6584    0.0000 N   0  0
  1  2  1  0
  2  3  1  0
  3  4  1  0
  3  5  2  0
  2  6  1  1
  6  7  1  0
  7  8  1  0
  1  9  1  0
  8 10  1  0
M  END