
          11280715142D 1   1.00000     0.00000     0

 28 30  0     1  0            999 V2000
    3.0750   -3.4292    0.0000 O   0  0  0  0  0  0           0  0  0
    2.3625   -3.0167    0.0000 C   0  0  2  0  0  0           0  0  0
    3.7875   -3.0292    0.0000 C   0  0  1  0  0  0           0  0  0
    2.3500   -2.2042    0.0000 O   0  0  0  0  0  0           0  0  0
   -1.2125   -5.0792    0.0000 N   0  0  0  0  0  0           0  0  0
   -0.5000   -4.6792    0.0000 C   0  0  0  0  0  0           0  0  0
    3.7875   -2.2042    0.0000 C   0  0  1  0  0  0           0  0  0
    4.5000   -3.4417    0.0000 C   0  0  0  0  0  0           0  0  0
    1.6500   -3.4417    0.0000 C   0  0  0  0  0  0           0  0  0
    8.0750   -2.2042    0.0000 C   0  0  0  0  0  0           0  0  0
    3.0750   -1.7917    0.0000 C   0  0  0  0  0  0           0  0  0
    5.2125   -4.6792    0.0000 N   0  0  0  0  0  0           0  0  0
    8.0750   -3.0292    0.0000 O   0  0  0  0  0  0           0  0  0
    1.6500   -4.2667    0.0000 C   0  0  0  0  0  0           0  0  0
    0.9250   -3.0292    0.0000 C   0  0  0  0  0  0           0  0  0
    5.2125   -2.2042    0.0000 C   0  0  0  0  0  0           0  0  0
    5.9542   -2.2417    0.0000 C   0  0  0  0  0  0           0  0  0
    0.2125   -4.2667    0.0000 C   0  0  0  0  0  0           0  0  0
    8.7875   -1.7917    0.0000 O   0  0  0  0  0  0           0  0  0
    0.2125   -3.4417    0.0000 C   0  0  0  0  0  0           0  0  0
    0.9250   -4.6792    0.0000 C   0  0  0  0  0  0           0  0  0
    4.5000   -4.2667    0.0000 C   0  0  0  0  0  0           0  0  0
    4.5000   -1.7917    0.0000 C   0  0  0  0  0  0           0  0  0
    7.3625   -1.7917    0.0000 C   0  0  0  0  0  0           0  0  0
    5.2125   -3.0292    0.0000 C   0  0  0  0  0  0           0  0  0
    5.9250   -4.2667    0.0000 C   0  0  0  0  0  0           0  0  0
    6.5792   -1.7792    0.0000 C   0  0  0  0  0  0           0  0  0
    5.9250   -3.4292    0.0000 C   0  0  0  0  0  0           0  0  0
  2  1  1  0     0  0
  3  1  1  0     0  0
  4  2  1  0     0  0
  5  6  3  0     0  0
  6 18  1  0     0  0
  7  3  1  0     0  0
  3  8  1  1     0  0
  2  9  1  1     0  0
 10 24  1  0     0  0
 11  7  1  0     0  0
 12 22  1  0     0  0
 13 10  2  0     0  0
 14  9  1  0     0  0
 15  9  2  0     0  0
 16 23  1  0     0  0
 17 16  2  0     0  0
 18 20  2  0     0  0
 19 10  1  0     0  0
 20 15  1  0     0  0
 21 14  2  0     0  0
 22  8  2  0     0  0
  7 23  1  1     0  0
 24 27  1  0     0  0
 25  8  1  0     0  0
 26 28  1  0     0  0
 27 17  1  0     0  0
 28 25  2  0     0  0
  4 11  1  0     0  0
 21 18  1  0     0  0
 26 12  2  0     0  0
M  END