
  Mrv0541 09061317202D          

 30 33  0  0  0  0            999 V2000
   -3.9577   -0.7373    0.0000 C   0  0  0  0  0  0  0  0  0  0  0  0
   -3.9577   -1.5623    0.0000 C   0  0  0  0  0  0  0  0  0  0  0  0
   -3.2433   -1.9748    0.0000 C   0  0  0  0  0  0  0  0  0  0  0  0
   -3.2433   -0.3248    0.0000 C   0  0  0  0  0  0  0  0  0  0  0  0
   -2.5288   -0.7373    0.0000 C   0  0  0  0  0  0  0  0  0  0  0  0
   -2.5288   -1.5623    0.0000 C   0  0  0  0  0  0  0  0  0  0  0  0
   -1.8143   -1.9748    0.0000 C   0  0  0  0  0  0  0  0  0  0  0  0
   -1.0998   -1.5623    0.0000 N   0  0  0  0  0  0  0  0  0  0  0  0
   -1.0998   -0.7373    0.0000 C   0  0  0  0  0  0  0  0  0  0  0  0
   -1.8143   -0.3248    0.0000 N   0  0  0  0  0  0  0  0  0  0  0  0
   -1.8143   -2.7998    0.0000 O   0  0  0  0  0  0  0  0  0  0  0  0
   -0.3854   -0.3248    0.0000 C   0  0  0  0  0  0  0  0  0  0  0  0
    0.3291   -0.7373    0.0000 C   0  0  0  0  0  0  0  0  0  0  0  0
    1.0436   -0.3248    0.0000 C   0  0  0  0  0  0  0  0  0  0  0  0
    1.0436    0.5002    0.0000 C   0  0  0  0  0  0  0  0  0  0  0  0
    0.3291    0.9127    0.0000 C   0  0  0  0  0  0  0  0  0  0  0  0
   -0.3854    0.5002    0.0000 C   0  0  0  0  0  0  0  0  0  0  0  0
    1.7580    0.9127    0.0000 O   0  0  0  0  0  0  0  0  0  0  0  0
    1.7580    1.7377    0.0000 C   0  0  0  0  0  0  0  0  0  0  0  0
    2.4725    2.1502    0.0000 C   0  0  0  0  0  0  0  0  0  0  0  0
    2.4725    2.9752    0.0000 C   0  0  0  0  0  0  0  0  0  0  0  0
    3.1870    3.3877    0.0000 N   0  0  0  0  0  0  0  0  0  0  0  0
    3.2732    4.2082    0.0000 C   0  0  0  0  0  0  0  0  0  0  0  0
    4.0802    4.3797    0.0000 C   0  0  0  0  0  0  0  0  0  0  0  0
    4.4927    3.6652    0.0000 C   0  0  0  0  0  0  0  0  0  0  0  0
    3.9407    3.0521    0.0000 C   0  0  0  0  0  0  0  0  0  0  0  0
   -0.3854   -1.9748    0.0000 C   0  0  0  0  0  0  0  0  0  0  0  0
   -0.6773   -2.4805    0.0000 H   0  0  0  0  0  0  0  0  0  0  0  0
    0.1203   -2.2668    0.0000 H   0  0  0  0  0  0  0  0  0  0  0  0
   -0.0934   -1.4691    0.0000 H   0  0  0  0  0  0  0  0  0  0  0  0
 14 15  2  0  0  0  0
  5  4  2  0  0  0  0
 15 16  1  0  0  0  0
  4  1  1  0  0  0  0
 16 17  2  0  0  0  0
 17 12  1  0  0  0  0
  9 12  1  0  0  0  0
  5 10  1  0  0  0  0
 15 18  1  0  0  0  0
  6  7  1  0  0  0  0
 18 19  1  0  0  0  0
  7  8  1  0  0  0  0
 19 20  1  0  0  0  0
  8  9  1  0  0  0  0
 20 21  1  0  0  0  0
  9 10  2  0  0  0  0
 21 22  1  0  0  0  0
 22 23  1  0  0  0  0
  5  6  1  0  0  0  0
  7 11  2  0  0  0  0
  2  3  1  0  0  0  0
 23 24  1  0  0  0  0
 24 25  1  0  0  0  0
 25 26  1  0  0  0  0
 26 22  1  0  0  0  0
 12 13  2  0  0  0  0
  8 27  1  0  0  0  0
  3  6  2  0  0  0  0
 27 28  1  0  0  0  0
 13 14  1  0  0  0  0
 27 29  1  0  0  0  0
  1  2  2  0  0  0  0
 27 30  1  0  0  0  0
M  ISO  3  28   3  29   3  30   3
M  END