
  SciTegic02011310422D

 20 23  0  0  0  0            999 V2000
    5.0001  -11.0516    0.0000 N   0  0
    4.9989  -11.8778    0.0000 C   0  0
    5.7128  -12.2902    0.0000 C   0  0
    5.7110  -10.6394    0.0000 C   0  0
    6.4254  -11.0480    0.0000 C   0  0
    6.4303  -11.8778    0.0000 C   0  0
    7.2211  -12.1297    0.0000 N   0  0
    7.7050  -11.4554    0.0000 C   0  0
    7.2132  -10.7869    0.0000 N   0  0
    8.5289  -11.4505    0.0000 N   0  0
    5.7056   -9.8183    0.0000 C   0  0
    6.4196   -9.4049    0.0000 C   0  0
    6.4175   -8.5818    0.0000 N   0  0
    4.9932   -9.4114    0.0000 C   0  0
    4.9887   -8.5928    0.0000 C   0  0
    5.7015   -8.1716    0.0000 C   0  0
    5.6923   -7.3456    0.0000 C   0  0
    4.9708   -6.9398    0.0000 C   0  0
    4.2573   -7.3661    0.0000 C   0  0
    4.2702   -8.1907    0.0000 C   0  0
  4  1  1  0
  8 10  1  0
  5  6  1  0
 11 12  2  0
  2  3  1  0
 12 13  1  0
 13 16  2  0
 14 11  1  0
  4 11  1  0
  3  6  2  0
 14 15  2  0
  1  2  2  0
  5  4  2  0
 15 16  1  0
  6  7  1  0
 16 17  1  0
  7  8  1  0
 17 18  2  0
  8  9  2  0
 18 19  1  0
  9  5  1  0
 19 20  2  0
 20 15  1  0
M  END