
  SciTegic01161211252D

 23 25  0  0  0  0            999 V2000
    7.2167   -2.0917    0.0000 C   0  0
    8.1542   -3.1667    0.0000 S   0  0
    7.7542   -1.4417    0.0000 C   0  0
    6.3875   -1.6417    0.0000 C   0  0
    5.7250   -1.7667    0.0000 C   0  0
    7.0500   -1.5667    0.0000 O   0  0
    6.2500   -1.1167    0.0000 C   0  0
    7.3750   -2.9042    0.0000 O   0  0
    7.7500   -0.6167    0.0000 O   0  0
    5.7250   -2.5917    0.0000 O   0  0
    8.9542   -3.3792    0.0000 O   0  0
    8.3667   -2.3667    0.0000 O   0  0
    7.9417   -3.9667    0.0000 O   0  0
    6.2417   -0.2917    0.0000 C   0  0
    6.5125   -0.8292    0.0000 O   0  0
    5.0125   -3.0125    0.0000 C   0  0
    4.2917   -2.6000    0.0000 C   0  0
    7.3375   -0.8292    0.0000 C   0  0
    4.2917   -1.7667    0.0000 C   0  0
    3.5792   -3.0125    0.0000 C   0  0
    3.5792   -1.3542    0.0000 C   0  0
    2.8667   -2.6000    0.0000 C   0  0
    2.8667   -1.7750    0.0000 C   0  0
  2  8  1  0
  3  1  1  0
  4  1  1  0
  5  4  1  0
  6  3  1  0
  7  5  1  0
  8  1  1  0
  9  3  1  0
 10  5  1  0
 11  2  1  0
 12  2  2  0
 13  2  2  0
 14  9  1  0
 15  4  1  0
 16 10  1  0
 17 16  1  0
 18 15  1  0
 19 17  1  0
 20 17  2  0
 21 19  2  0
 22 20  1  0
 23 22  2  0
  7  6  1  0
 14  7  1  0
 23 21  1  0
M  END