
          11280715422D 1   1.00000     0.00000     0

 29 32  0     0  0            999 V2000
    0.2792    0.9000    0.0000 C   0  0  0  0  0  0           0  0  0
   -0.7208    0.0125    0.0000 C   0  0  0  0  0  0           0  0  0
   -0.5458    0.8125    0.0000 N   0  0  0  0  0  0           0  0  0
   -0.0083   -0.4042    0.0000 N   0  0  3  0  0  0           0  0  0
    0.6042    0.1500    0.0000 C   0  0  0  0  0  0           0  0  0
   -1.4458   -0.0750    0.0000 C   0  0  0  0  0  0           0  0  0
    0.6875    1.6125    0.0000 C   0  0  0  0  0  0           0  0  0
   -1.8583    0.6458    0.0000 C   0  0  0  0  0  0           0  0  0
    1.5125    1.6125    0.0000 N   0  0  0  0  0  0           0  0  0
   -0.0083   -1.2292    0.0000 C   0  0  0  0  0  0           0  0  0
   -1.8583   -0.7875    0.0000 C   0  0  0  0  0  0           0  0  0
   -2.6833    0.6458    0.0000 C   0  0  0  0  0  0           0  0  0
    0.6542    2.4375    0.0000 O   0  0  0  0  0  0           0  0  0
    0.6917   -1.6375    0.0000 C   0  0  0  0  0  0           0  0  0
   -0.7208   -1.6292    0.0000 C   0  0  0  0  0  0           0  0  0
   -3.0958   -0.0667    0.0000 C   0  0  0  0  0  0           0  0  0
   -1.4458    1.3583    0.0000 Cl  0  0  0  0  0  0           0  0  0
    1.4167   -0.0250    0.0000 C   0  0  0  0  0  0           0  0  0
   -2.6833   -0.7875    0.0000 C   0  0  0  0  0  0           0  0  0
   -0.0208   -2.8667    0.0000 C   0  0  0  0  0  0           0  0  0
    2.3375    1.6125    0.0000 C   0  0  3  0  0  0           0  0  0
   -0.7333   -2.4500    0.0000 C   0  0  0  0  0  0           0  0  0
    0.6917   -2.4625    0.0000 C   0  0  0  0  0  0           0  0  0
   -3.9208   -0.0625    0.0000 Cl  0  0  0  0  0  0           0  0  0
   -0.0333   -3.6917    0.0000 Cl  0  0  0  0  0  0           0  0  0
    2.8167    0.9500    0.0000 C   0  0  0  0  0  0           0  0  0
    2.8167    2.2875    0.0000 C   0  0  0  0  0  0           0  0  0
    3.6042    1.2083    0.0000 C   0  0  0  0  0  0           0  0  0
    3.6042    2.0333    0.0000 C   0  0  0  0  0  0           0  0  0
  2  3  2  0     0  0
  3  1  1  0     0  0
  4  5  1  0     0  0
  5  1  2  0     0  0
  6  2  1  0     0  0
  7  1  1  0     0  0
  8  6  2  0     0  0
  9  7  1  0     0  0
 10  4  1  0     0  0
 11  6  1  0     0  0
 12  8  1  0     0  0
 13  7  2  0     0  0
 14 10  1  0     0  0
 15 10  2  0     0  0
 16 19  1  0     0  0
 17  8  1  0     0  0
 18  5  1  0     0  0
 19 11  2  0     0  0
 20 22  2  0     0  0
 21  9  1  0     0  0
 22 15  1  0     0  0
 23 14  2  0     0  0
 24 16  1  0     0  0
 25 20  1  0     0  0
 26 21  1  0     0  0
 27 21  1  0     0  0
 28 26  1  0     0  0
 29 27  1  0     0  0
  4  2  1  0     0  0
 29 28  1  0     0  0
 20 23  1  0     0  0
 16 12  2  0     0  0
M  END