
          11280715122D 1   1.00000     0.00000     0

 32 34  0     0  0            999 V2000
    8.5625   -7.0542    0.0000 C   0  0  0  0  0  0           0  0  0
    7.8500   -6.6417    0.0000 C   0  0  0  0  0  0           0  0  0
    3.8042   -7.1625    0.0000 N   0  0  3  0  0  0           0  0  0
    3.7917   -4.6792    0.0000 C   0  0  3  0  0  0           0  0  0
    8.5625   -7.8792    0.0000 C   0  0  0  0  0  0           0  0  0
    3.0875   -6.7500    0.0000 C   0  0  0  0  0  0           0  0  0
    3.0875   -5.9167    0.0000 C   0  0  0  0  0  0           0  0  0
    3.8000   -5.5042    0.0000 O   0  0  0  0  0  0           0  0  0
    5.1667   -8.0875    0.0000 N   0  0  3  0  0  0           0  0  0
    7.8500   -5.8167    0.0000 N   0  0  3  0  0  0           0  0  0
    9.2750   -8.2917    0.0000 N   0  0  0  0  0  0           0  0  0
    7.1292   -7.0542    0.0000 O   0  0  0  0  0  0           0  0  0
    4.5417   -6.7917    0.0000 C   0  0  0  0  0  0           0  0  0
    3.7417   -7.9792    0.0000 C   0  0  0  0  0  0           0  0  0
    7.8500   -8.3000    0.0000 N   0  0  0  0  0  0           0  0  0
    3.7917   -3.9250    0.0000 F   0  0  0  0  0  0           0  0  0
    4.4542   -4.1292    0.0000 F   0  0  0  0  0  0           0  0  0
    3.1250   -4.1292    0.0000 F   0  0  0  0  0  0           0  0  0
    4.4250   -8.4417    0.0000 C   0  0  0  0  0  0           0  0  0
    5.2250   -7.2625    0.0000 C   0  0  0  0  0  0           0  0  0
    9.2750   -6.6417    0.0000 C   0  0  0  0  0  0           0  0  0
    5.8417   -8.5500    0.0000 C   0  0  0  0  0  0           0  0  0
    6.5542   -8.1292    0.0000 C   0  0  0  0  0  0           0  0  0
    2.3667   -5.5042    0.0000 C   0  0  0  0  0  0           0  0  0
    2.3667   -7.1625    0.0000 C   0  0  0  0  0  0           0  0  0
    9.9917   -7.8792    0.0000 C   0  0  0  0  0  0           0  0  0
    7.1375   -8.7125    0.0000 C   0  0  0  0  0  0           0  0  0
    7.1292   -5.4042    0.0000 C   0  0  0  0  0  0           0  0  0
    8.5625   -5.4042    0.0000 C   0  0  0  0  0  0           0  0  0
    9.9917   -7.0542    0.0000 C   0  0  0  0  0  0           0  0  0
    1.6542   -5.9167    0.0000 C   0  0  0  0  0  0           0  0  0
    1.6542   -6.7500    0.0000 C   0  0  0  0  0  0           0  0  0
  2  1  1  0     0  0
  3 13  1  0     0  0
  4  8  1  0     0  0
  5  1  2  0     0  0
  6  3  1  0     0  0
  7  6  1  0     0  0
  8  7  1  0     0  0
  9 22  1  0     0  0
 10  2  1  0     0  0
 11  5  1  0     0  0
 12  2  2  0     0  0
 13 20  1  0     0  0
 14 19  1  0     0  0
 15  5  1  0     0  0
 16  4  1  0     0  0
 17  4  1  0     0  0
 18  4  1  0     0  0
 19  9  1  0     0  0
 20  9  1  0     0  0
 21  1  1  0     0  0
 22 23  1  0     0  0
 23 27  1  0     0  0
 24  7  2  0     0  0
 25  6  2  0     0  0
 26 30  1  0     0  0
 27 15  1  0     0  0
 28 10  1  0     0  0
 29 10  1  0     0  0
 30 21  2  0     0  0
 31 32  2  0     0  0
 32 25  1  0     0  0
 26 11  2  0     0  0
 14  3  1  0     0  0
 31 24  1  0     0  0
M  END