
          11280715222D 1   1.00000     0.00000     0

 33 36  0     1  0            999 V2000
   -1.3750    0.7208    0.0000 S   0  0  3  0  0  0           0  0  0
   -0.5500    0.7333    0.0000 N   0  0  3  0  0  0           0  0  0
   -1.8000    1.4250    0.0000 C   0  0  0  0  0  0           0  0  0
    0.6917    0.0250    0.0000 C   0  0  2  0  0  0           0  0  0
   -0.1333    0.0250    0.0000 C   0  0  0  0  0  0           0  0  0
   -0.1333    1.4458    0.0000 C   0  0  0  0  0  0           0  0  0
    1.2792   -0.5542    0.0000 C   0  0  0  0  0  0           0  0  0
    0.6875    1.4500    0.0000 C   0  0  1  0  0  0           0  0  0
   -2.6208    1.4125    0.0000 C   0  0  0  0  0  0           0  0  0
   -1.0083   -0.0167    0.0000 O   0  0  0  0  0  0           0  0  0
   -2.1125    0.3500    0.0000 O   0  0  0  0  0  0           0  0  0
    4.8167    2.5833    0.0000 C   0  0  0  0  0  0           0  0  0
    1.0667   -1.3500    0.0000 C   0  0  0  0  0  0           0  0  0
   -4.2583    1.3833    0.0000 N   0  0  0  0  0  0           0  0  0
    4.5667    3.4833    0.0000 O   0  0  0  0  0  0           0  0  0
   -3.0458    2.1125    0.0000 C   0  0  0  0  0  0           0  0  0
    1.9792    1.4083    0.0000 C   0  0  0  0  0  0           0  0  0
    2.9250    1.4083    0.0000 C   0  0  0  0  0  0           0  0  0
    5.7167    2.3583    0.0000 O   0  0  0  0  0  0           0  0  0
   -1.3958    2.1458    0.0000 C   0  0  0  0  0  0           0  0  0
    1.3917    1.8500    0.0000 C   0  0  0  0  0  0           0  0  0
    0.2750   -1.5667    0.0000 O   0  0  0  0  0  0           0  0  0
   -3.8583    2.1000    0.0000 C   0  0  0  0  0  0           0  0  0
    2.0667   -0.3292    0.0000 C   0  0  0  0  0  0           0  0  0
   -3.0208    0.6958    0.0000 C   0  0  0  0  0  0           0  0  0
   -1.8125    2.8583    0.0000 C   0  0  0  0  0  0           0  0  0
    4.1750    1.9208    0.0000 C   0  0  0  0  0  0           0  0  0
   -3.8333    0.6833    0.0000 C   0  0  0  0  0  0           0  0  0
    3.3667    1.9083    0.0000 C   0  0  0  0  0  0           0  0  0
   -2.6375    2.8458    0.0000 C   0  0  0  0  0  0           0  0  0
    1.6542   -1.9292    0.0000 C   0  0  0  0  0  0           0  0  0
    2.6625   -0.9125    0.0000 C   0  0  0  0  0  0           0  0  0
    2.4417   -1.7125    0.0000 C   0  0  0  0  0  0           0  0  0
  2  1  1  0     0  0
  3  1  1  0     0  0
  4  5  1  0     0  0
  5  2  1  0     0  0
  6  2  1  0     0  0
  4  7  1  1     0  0
  8  6  1  0     0  0
  9  3  1  0     0  0
 10  1  2  0     0  0
 11  1  2  0     0  0
 12 27  1  0     0  0
 13  7  2  0     0  0
 14 28  2  0     0  0
 15 12  2  0     0  0
 16  9  1  0     0  0
 17 21  1  0     0  0
 18 17  2  0     0  0
 19 12  1  0     0  0
 20  3  2  0     0  0
  8 21  1  1     0  0
 22 13  1  0     0  0
 23 16  2  0     0  0
 24  7  1  0     0  0
 25  9  2  0     0  0
 26 20  1  0     0  0
 27 29  1  0     0  0
 28 25  1  0     0  0
 29 18  1  0     0  0
 30 26  2  0     0  0
 31 13  1  0     0  0
 32 24  2  0     0  0
 33 32  1  0     0  0
  4  8  1  0     0  0
 30 16  1  0     0  0
 23 14  1  0     0  0
 31 33  2  0     0  0
M  END