
          11280715462D 1   1.00000     0.00000     0

 33 36  0     1  0            999 V2000
   -0.2500   -0.0042    0.0000 N   0  0  3  0  0  0           0  0  0
   -0.4875    0.7333    0.0000 C   0  0  0  0  0  0           0  0  0
    0.1292    1.1958    0.0000 N   0  0  3  0  0  0           0  0  0
   -0.8750   -0.4625    0.0000 C   0  0  0  0  0  0           0  0  0
    0.7542    0.7375    0.0000 C   0  0  0  0  0  0           0  0  0
    0.5167   -0.0042    0.0000 C   0  0  1  0  0  0           0  0  0
   -1.2625    0.7375    0.0000 N   0  0  0  0  0  0           0  0  0
   -0.8750   -1.2375    0.0000 S   0  0  3  0  0  0           0  0  0
   -1.5000    0.0000    0.0000 C   0  0  0  0  0  0           0  0  0
    0.1375    1.9750    0.0000 C   0  0  0  0  0  0           0  0  0
    0.8000    2.3625    0.0000 C   0  0  0  0  0  0           0  0  0
   -0.5250    2.3625    0.0000 C   0  0  0  0  0  0           0  0  0
    1.2542   -0.2042    0.0000 C   0  0  0  0  0  0           0  0  0
    1.4875    0.9750    0.0000 O   0  0  0  0  0  0           0  0  0
   -0.1125   -1.2417    0.0000 O   0  0  0  0  0  0           0  0  0
   -1.6458   -1.2375    0.0000 O   0  0  0  0  0  0           0  0  0
    0.8000    3.1458    0.0000 C   0  0  0  0  0  0           0  0  0
   -0.5333    3.1458    0.0000 C   0  0  0  0  0  0           0  0  0
    0.1375    3.5250    0.0000 C   0  0  0  0  0  0           0  0  0
   -0.8833   -2.0167    0.0000 C   0  0  0  0  0  0           0  0  0
    0.5125   -0.7875    0.0000 C   0  0  0  0  0  0           0  0  0
    1.2500   -0.9875    0.0000 C   0  0  0  0  0  0           0  0  0
    1.2417   -2.5375    0.0000 C   0  0  0  0  0  0           0  0  0
   -1.2000    3.5250    0.0000 Cl  0  0  0  0  0  0           0  0  0
    1.4667    3.5250    0.0000 Cl  0  0  0  0  0  0           0  0  0
    1.2375   -3.3125    0.0000 Br  0  0  0  0  0  0           0  0  0
    1.9125   -1.3667    0.0000 C   0  0  0  0  0  0           0  0  0
    0.5792   -1.3625    0.0000 C   0  0  0  0  0  0           0  0  0
    1.9125   -2.1500    0.0000 C   0  0  0  0  0  0           0  0  0
    0.5750   -2.1417    0.0000 C   0  0  0  0  0  0           0  0  0
   -1.5500   -2.4000    0.0000 C   0  0  0  0  0  0           0  0  0
   -2.8833   -2.3875    0.0000 O   0  0  0  0  0  0           0  0  0
   -2.2125   -2.0042    0.0000 C   0  0  0  0  0  0           0  0  0
  2  1  1  0     0  0
  3  2  1  0     0  0
  4  1  1  0     0  0
  5  6  1  0     0  0
  6  1  1  0     0  0
  7  2  2  0     0  0
  8  4  1  0     0  0
  9  4  2  0     0  0
 10  3  1  0     0  0
 11 10  2  0     0  0
 12 10  1  0     0  0
  6 13  1  1     0  0
 14  5  2  0     0  0
 15  8  2  0     0  0
 16  8  2  0     0  0
 17 11  1  0     0  0
 18 12  2  0     0  0
 19 18  1  0     0  0
 20  8  1  0     0  0
  6 21  1  6     0  0
 22 13  1  0     0  0
 23 30  2  0     0  0
 24 18  1  0     0  0
 25 17  1  0     0  0
 26 23  1  0     0  0
 27 22  1  0     0  0
 28 22  2  0     0  0
 29 27  2  0     0  0
 30 28  1  0     0  0
 31 20  1  0     0  0
 32 33  1  0     0  0
 33 31  1  0     0  0
  3  5  1  0     0  0
  7  9  1  0     0  0
 29 23  1  0     0  0
 17 19  2  0     0  0
M  END