
  CDK    9/16/09,9:50

 42 46  0  0  0  0  0  0  0  0999 V2000
    2.5131   -0.9940    0.0000 C   0  0  0  0  0  0  0  0  0  0  0  0
    3.2297   -1.4027    0.0000 C   0  0  0  0  0  0  0  0  0  0  0  0
   -2.5101    1.0383    0.0000 C   0  0  0  0  0  0  0  0  0  0  0  0
   -1.7953    1.4549    0.0000 C   0  0  0  0  0  0  0  0  0  0  0  0
   -1.7997    2.2804    0.0000 C   0  0  0  0  0  0  0  0  0  0  0  0
   -2.5182    2.6902    0.0000 C   0  0  0  0  0  0  0  0  0  0  0  0
   -3.2337    2.2685    0.0000 C   0  0  0  0  0  0  0  0  0  0  0  0
   -3.2257    1.4444    0.0000 C   0  0  0  0  0  0  0  0  0  0  0  0
   -3.9520    2.6743    0.0000 O   0  0  0  0  0  0  0  0  0  0  0  0
   -1.0752    1.0403    0.0000 C   0  0  0  0  0  0  0  0  0  0  0  0
   -2.5053    0.2133    0.0000 C   0  0  0  0  0  0  0  0  0  0  0  0
   -1.0875    2.6967    0.0000 C   0  0  0  0  0  0  0  0  0  0  0  0
   -1.0681    0.2153    0.0000 C   0  0  0  0  0  0  0  0  0  0  0  0
   -1.7790   -0.2033    0.0000 N   0  0  0  0  0  0  0  0  0  0  0  0
   -0.3501   -0.1910    0.0000 C   0  0  0  0  0  0  0  0  0  0  0  0
    0.3641    0.2274    0.0000 O   0  0  0  0  0  0  0  0  0  0  0  0
   -0.3439   -1.0160    0.0000 N   0  0  0  0  0  0  0  0  0  0  0  0
   -1.0615   -1.4322    0.0000 C   0  0  0  0  0  0  0  0  0  0  0  0
    0.3716   -2.2480    0.0000 C   0  0  0  0  0  0  0  0  0  0  0  0
    0.3690   -1.4204    0.0000 C   0  0  0  0  0  0  0  0  0  0  0  0
   -0.3416   -2.6646    0.0000 C   0  0  0  0  0  0  0  0  0  0  0  0
   -1.0526   -2.2517    0.0000 C   0  0  0  0  0  0  0  0  0  0  0  0
   -1.7636   -2.6609    0.0000 C   0  0  0  0  0  0  0  0  0  0  0  0
   -1.7648   -3.4828    0.0000 C   0  0  0  0  0  0  0  0  0  0  0  0
   -1.0491   -3.8939    0.0000 C   0  0  0  0  0  0  0  0  0  0  0  0
   -0.3410   -3.4823    0.0000 C   0  0  0  0  0  0  0  0  0  0  0  0
    1.0841   -1.0017    0.0000 C   0  0  0  0  0  0  0  0  0  0  0  0
    1.8008   -1.4104    0.0000 N   0  0  0  0  0  0  0  0  0  0  0  0
    1.0797   -0.1767    0.0000 O   0  0  0  0  0  0  0  0  0  0  0  0
    2.5086   -0.1690    0.0000 C   0  0  0  0  0  0  0  0  0  0  0  0
    3.2209    0.2473    0.0000 C   0  0  0  0  0  0  0  0  0  0  0  0
    3.9397   -0.1588    0.0000 O   0  0  0  0  0  0  0  0  0  0  0  0
    3.2186    1.0749    0.0000 O   0  0  0  0  0  0  0  0  0  0  0  0
    3.3232   -2.2217    0.0000 N   0  0  0  0  0  0  0  0  0  0  0  0
    3.9844   -1.0622    0.0000 N   0  0  0  0  0  0  0  0  0  0  0  0
    4.5398   -1.6722    0.0000 C   0  0  0  0  0  0  0  0  0  0  0  0
    4.1324   -2.3859    0.0000 C   0  0  0  0  0  0  0  0  0  0  0  0
    4.5467   -3.0935    0.0000 C   0  0  0  0  0  0  0  0  0  0  0  0
    5.3683   -3.0886    0.0000 C   0  0  0  0  0  0  0  0  0  0  0  0
    5.7738   -2.3701    0.0000 C   0  0  0  0  0  0  0  0  0  0  0  0
    5.3572   -1.6655    0.0000 C   0  0  0  0  0  0  0  0  0  0  0  0
    2.7152   -2.7793    0.0000 C   0  0  0  0  0  0  0  0  0  0  0  0
  5  6  2  0  0  0  0 
  3 11  1  0  0  0  0 
 21 22  2  0  0  0  0 
  3  4  2  0  0  0  0 
 22 23  1  0  0  0  0 
  5 12  1  0  0  0  0 
 23 24  2  0  0  0  0 
  6  7  1  0  0  0  0 
 24 25  1  0  0  0  0 
 13 10  1  1  0  0  0 
 25 26  2  0  0  0  0 
 26 21  1  0  0  0  0 
 13 14  1  0  0  0  0 
  7  8  2  0  0  0  0 
 27 28  1  0  0  0  0 
 27 29  2  0  0  0  0 
 20 27  1  6  0  0  0 
 28  1  1  0  0  0  0 
 13 15  1  0  0  0  0 
  1 30  1  6  0  0  0 
  8  3  1  0  0  0  0 
 30 31  1  0  0  0  0 
 15 16  2  0  0  0  0 
  4  5  1  0  0  0  0 
 31 32  1  0  0  0  0 
 31 33  2  0  0  0  0 
  2 34  1  0  0  0  0 
 15 17  1  0  0  0  0 
 17 18  1  0  0  0  0 
 34 37  1  0  0  0  0 
 36 35  1  0  0  0  0 
 35  2  2  0  0  0  0 
  7  9  1  0  0  0  0 
  1  2  1  0  0  0  0 
 36 37  2  0  0  0  0 
  4 10  1  0  0  0  0 
 37 38  1  0  0  0  0 
 17 20  1  0  0  0  0 
 38 39  2  0  0  0  0 
 18 22  1  0  0  0  0 
 39 40  1  0  0  0  0 
 21 19  1  0  0  0  0 
 40 41  2  0  0  0  0 
 41 36  1  0  0  0  0 
 19 20  1  0  0  0  0 
 34 42  1  0  0  0  0 
M  END