
  CDK    9/16/09,10:4

 29 31  0  0  0  0  0  0  0  0999 V2000
   19.9461  -12.0833    0.0000 C   0  0  0  0  0  0  0  0  0  0  0  0
   19.8589  -11.2640    0.0000 C   0  0  0  0  0  0  0  0  0  0  0  0
   20.6105  -10.9238    0.0000 N   0  0  0  0  0  0  0  0  0  0  0  0
   20.7582  -12.2504    0.0000 C   0  0  0  0  0  0  0  0  0  0  0  0
   21.1639  -11.5351    0.0000 C   0  0  0  0  0  0  0  0  0  0  0  0
   21.9844  -11.5299    0.0000 C   0  0  0  0  0  0  0  0  0  0  0  0
   22.4001  -12.2392    0.0000 C   0  0  0  0  0  0  0  0  0  0  0  0
   21.9893  -12.9552    0.0000 C   0  0  0  0  0  0  0  0  0  0  0  0
   21.1702  -12.9570    0.0000 C   0  0  0  0  0  0  0  0  0  0  0  0
   18.4283  -11.2667    0.0000 N   0  0  0  0  0  0  0  0  0  0  0  0
   19.1427  -10.8542    0.0000 C   0  0  0  0  0  0  0  0  0  0  0  0
   19.1427  -10.0292    0.0000 O   0  0  0  0  0  0  0  0  0  0  0  0
   11.2875  -11.2708    0.0000 C   0  0  0  0  0  0  0  0  0  0  0  0
   12.0020  -10.8583    0.0000 C   0  0  0  0  0  0  0  0  0  0  0  0
   12.7164  -11.2708    0.0000 C   0  0  0  0  0  0  0  0  0  0  0  0
   13.4309  -10.8583    0.0000 C   0  0  0  0  0  0  0  0  0  0  0  0
   14.1454  -11.2708    0.0000 N   0  0  0  0  0  0  0  0  0  0  0  0
   14.8599  -10.8583    0.0000 C   0  0  0  0  0  0  0  0  0  0  0  0
   15.5743  -11.2708    0.0000 N   0  0  0  0  0  0  0  0  0  0  0  0
   14.8599  -10.0333    0.0000 N   0  0  0  0  0  0  0  0  0  0  0  0
   16.2888  -10.8583    0.0000 C   0  0  0  0  0  0  0  0  0  0  0  0
   17.0033  -11.2708    0.0000 C   0  0  0  0  0  0  0  0  0  0  0  0
   16.2888  -10.0333    0.0000 O   0  0  0  0  0  0  0  0  0  0  0  0
   10.5007  -11.0228    0.0000 N   0  0  0  0  0  0  0  0  0  0  0  0
   10.0216  -11.6944    0.0000 C   0  0  0  0  0  0  0  0  0  0  0  0
   10.5124  -12.3576    0.0000 N   0  0  0  0  0  0  0  0  0  0  0  0
   11.2947  -12.0958    0.0000 C   0  0  0  0  0  0  0  0  0  0  0  0
   17.7177  -10.8583    0.0000 C   0  0  0  0  0  0  0  0  0  0  0  0
   18.4291  -12.0917    0.0000 C   0  0  0  0  0  0  0  0  0  0  0  0
 14 15  1  0  0  0  0 
  4  1  1  0  0  0  0 
 15 16  1  0  0  0  0 
  7  8  1  0  0  0  0 
 16 17  1  0  0  0  0 
 17 18  1  0  0  0  0 
  8  9  2  0  0  0  0 
 18 19  2  0  0  0  0 
  9  4  1  0  0  0  0 
 18 20  1  0  0  0  0 
  1  2  2  0  0  0  0 
 19 21  1  0  0  0  0 
  4  5  2  0  0  0  0 
 21 22  1  0  0  0  0 
 10 11  1  0  0  0  0 
 21 23  2  0  0  0  0 
 13 24  1  0  0  0  0 
  2  3  1  0  0  0  0 
 11 12  2  0  0  0  0 
  5  6  1  0  0  0  0 
  3  5  1  0  0  0  0 
 24 25  2  0  0  0  0 
 25 26  1  0  0  0  0 
 26 27  1  0  0  0  0 
 27 13  2  0  0  0  0 
 13 14  1  0  0  0  0 
 22 28  1  0  0  0  0 
 28 10  1  0  0  0  0 
 11  2  1  0  0  0  0 
  6  7  2  0  0  0  0 
 10 29  1  0  0  0  0 
M  END