
          11280715362D 1   1.00000     0.00000     0

 36 39  0     1  0            999 V2000
    4.5250   -5.3000    0.0000 C   0  0  0  0  0  0           0  0  0
    4.5250   -4.1250    0.0000 C   0  0  1  0  0  0           0  0  0
    5.0292   -4.4250    0.0000 C   0  0  2  0  0  0           0  0  0
    4.0167   -4.4167    0.0000 C   0  0  0  0  0  0           0  0  0
    5.5500   -4.1292    0.0000 N   0  0  3  0  0  0           0  0  0
    4.0167   -5.0042    0.0000 C   0  0  0  0  0  0           0  0  0
    5.0292   -5.0042    0.0000 C   0  0  0  0  0  0           0  0  0
    4.5167   -5.8875    0.0000 C   0  0  0  0  0  0           0  0  0
    3.5000   -5.8750    0.0000 N   0  0  0  0  0  0           0  0  0
    6.0750   -2.6667    0.0000 C   0  0  0  0  0  0           0  0  0
    3.5125   -5.2875    0.0000 C   0  0  0  0  0  0           0  0  0
    5.5542   -3.5500    0.0000 C   0  0  0  0  0  0           0  0  0
    4.5292   -3.5292    0.0000 C   0  0  0  0  0  0           0  0  0
    7.2625   -5.3917    0.0000 C   0  0  0  0  0  0           0  0  0
    8.4667   -5.4000    0.0000 C   0  0  0  0  0  0           0  0  0
    7.5625   -4.8792    0.0000 C   0  0  0  0  0  0           0  0  0
    8.1625   -4.8792    0.0000 C   0  0  0  0  0  0           0  0  0
    5.0417   -3.2417    0.0000 C   0  0  1  0  0  0           0  0  0
    5.5667   -2.3667    0.0000 O   0  0  0  0  0  0           0  0  0
    6.0667   -3.2625    0.0000 O   0  0  0  0  0  0           0  0  0
    9.0667   -5.4000    0.0000 O   0  0  0  0  0  0           0  0  0
    7.5625   -5.9167    0.0000 O   0  0  0  0  0  0           0  0  0
    6.5875   -2.3792    0.0000 C   0  0  3  0  0  0           0  0  0
    5.0500   -2.6542    0.0000 C   0  0  0  0  0  0           0  0  0
    3.5125   -4.1167    0.0000 C   0  0  0  0  0  0           0  0  0
    6.0542   -4.4375    0.0000 C   0  0  0  0  0  0           0  0  0
    8.1625   -5.9167    0.0000 O   0  0  0  0  0  0           0  0  0
    6.6625   -5.3917    0.0000 O   0  0  0  0  0  0           0  0  0
    3.0042   -4.4167    0.0000 C   0  0  0  0  0  0           0  0  0
    3.0042   -5.0042    0.0000 C   0  0  0  0  0  0           0  0  0
    7.1250   -2.6292    0.0000 C   0  0  0  0  0  0           0  0  0
    6.6625   -1.7917    0.0000 C   0  0  0  0  0  0           0  0  0
    7.2375   -1.6792    0.0000 C   0  0  0  0  0  0           0  0  0
    7.5250   -2.2000    0.0000 C   0  0  0  0  0  0           0  0  0
    5.5417   -4.7167    0.0000 H   0  0  0  0  0  0           0  0  0
    3.7375   -3.6667    0.0000 H   0  0  0  0  0  0           0  0  0
  2  3  1  0     0  0
  3  7  1  0     0  0
  4  6  2  0     0  0
  5  3  1  0     0  0
  6  1  1  0     0  0
  7  1  1  0     0  0
  8  1  2  0     0  0
  9  8  1  0     0  0
 10 19  1  0     0  0
 11  6  1  0     0  0
 12  5  1  0     0  0
 13  2  1  0     0  0
 15 17  1  0     0  0
 16 14  1  0     0  0
 17 16  2  0     0  0
 18 12  1  0     0  0
 19 24  1  0     0  0
 20 10  2  0     0  0
 21 15  2  0     0  0
 22 14  2  0     0  0
 23 10  1  0     0  0
 18 24  1  1     0  0
 25  4  1  0     0  0
 26  5  1  0     0  0
 27 15  1  0     0  0
 28 14  1  0     0  0
 29 30  1  0     0  0
 30 11  2  0     0  0
 31 23  1  0     0  0
 32 23  1  0     0  0
 33 32  1  0     0  0
 34 31  1  0     0  0
  3 35  1  1     0  0
  2 36  1  6     0  0
  9 11  1  0     0  0
  2  4  1  0     0  0
 29 25  2  0     0  0
 13 18  1  0     0  0
 33 34  1  0     0  0
M  END