
  SciTegic10301317112D

 82 86  0  0  1  0            999 V2000
    1.2166    0.6718    0.0000 C   0  0
    1.0005    1.4680    0.0000 N   0  0
    4.2578   -2.3495    0.0000 C   0  0
   -0.0132    2.4751    0.0000 C   0  0
    5.2715   -3.3566    0.0000 N   0  0
    6.0691   -3.5675    0.0000 C   0  0
    3.0279   -0.5462    0.0000 C   0  0
    7.2990   -5.3708    0.0000 C   0  0
    4.0417   -1.5533    0.0000 N   0  0
   10.8546   -4.8330    0.0000 C   0  0
    7.0828   -4.5746    0.0000 N   0  0
    5.0554   -2.5604    0.0000 C   0  0  1  0  0  0
    2.2304   -0.3353    0.0000 N   0  0
   -0.8108    2.6860    0.0000 N   0  0
    3.2441   -1.3424    0.0000 C   0  0  1  0  0  0
    0.2029    1.6789    0.0000 C   0  0  2  0  0  0
    2.6626   -1.9276    0.0000 C   0  0
    6.2852   -4.3637    0.0000 C   0  0  1  0  0  0
    2.0142    0.4609    0.0000 C   0  0  1  0  0  0
    8.0965   -5.5817    0.0000 C   0  0  2  0  0  0
    5.3537    1.7949    0.0000 C   0  0
   -2.4729    6.0817    0.0000 C   0  0
    9.4756   -5.2073    0.0000 C   0  0
    8.6780   -4.9964    0.0000 N   0  0
   -0.4455    4.0675    0.0000 C   0  0
    1.8651   -1.7167    0.0000 C   0  0
   -1.0269    3.4822    0.0000 C   0  0  2  0  0  0
    6.1513    1.5840    0.0000 N   0  0
   -2.6891    6.8779    0.0000 N   0  0
   11.1406   -5.2496    0.0000 C   0  0
   11.5901   -3.7119    0.0000 C   0  0
   12.3257   -4.8330    0.0000 C   0  0
    0.6352    0.0865    0.0000 O   0  0
    3.6764   -2.9347    0.0000 O   0  0
    0.5682    3.0604    0.0000 O   0  0
   10.0570   -4.6221    0.0000 C   0  0
    6.6506   -2.9822    0.0000 O   0  0
    6.7175   -5.9560    0.0000 O   0  0
    3.6094    0.0391    0.0000 O   0  0
   10.4052   -5.6233    0.0000 C   0  0
   11.5901   -5.2067    0.0000 C   0  0
   10.8546   -4.0856    0.0000 C   0  0
    8.3127   -6.3779    0.0000 C   0  0
    5.7038   -4.9489    0.0000 C   0  0
   -0.6616    4.8637    0.0000 O   0  0
    9.6917   -6.0035    0.0000 O   0  0
    1.2836   -2.3020    0.0000 O   0  0
   12.3257   -4.0856    0.0000 C   0  0
   11.1406   -4.5022    0.0000 C   0  0
   11.8762   -5.6233    0.0000 C   0  0
    4.7723    1.2096    0.0000 N   0  0
   -3.0544    5.4964    0.0000 N   0  0
    5.1376    2.5911    0.0000 N   0  0
   -1.6753    5.8708    0.0000 N   0  0
    0.3521    3.8566    0.0000 N   0  0
    5.6368   -1.9751    0.0000 C   0  0
    1.6489   -0.9205    0.0000 N   0  0
    7.7312   -6.9631    0.0000 C   0  0
    6.5683   -8.1337    0.0000 C   0  0
    4.9062   -4.7380    0.0000 C   0  0
    1.5820    2.0533    0.0000 C   0  0
    6.9337   -6.7522    0.0000 C   0  0
    7.9474   -7.7593    0.0000 C   0  0
    6.3522   -7.3375    0.0000 C   0  0
    7.3659   -8.3446    0.0000 C   0  0
    5.9869   -8.7190    0.0000 O   0  0
   -0.3785    1.0936    0.0000 C   0  0
    2.5957    1.0462    0.0000 C   0  0
   -1.8245    3.6931    0.0000 C   0  0
    3.9747    1.4205    0.0000 C   0  0
   -2.8382    4.7002    0.0000 C   0  0
    5.4207   -1.1789    0.0000 C   0  0
    6.4344   -2.1860    0.0000 C   0  0
    5.1893   -8.5080    0.0000 C   0  0
    4.6901   -3.9418    0.0000 C   0  0
    4.3248   -5.3233    0.0000 C   0  0
    3.3933    0.8353    0.0000 C   0  0
   -2.0407    4.4893    0.0000 C   0  0
    4.6079   -9.0933    0.0000 C   0  0
    3.5272   -5.1124    0.0000 C   0  0
    3.8925   -3.7309    0.0000 C   0  0
    3.3110   -4.3162    0.0000 C   0  0
  2  1  1  0
  3  9  1  0
 16  4  1  0
  5 12  1  0
  6  5  1  0
  7 13  1  0
  8 11  1  0
 15  9  1  1
 10 36  1  0
 18 11  1  1
 12  3  1  0
 19 13  1  6
 14  4  1  0
 15  7  1  0
 16  2  1  0
 15 17  1  0
 18  6  1  0
 19  1  1  0
 20  8  1  0
 21 51  2  0
 22 52  2  0
 23 24  1  0
 24 20  1  0
 27 25  1  0
 26 17  1  0
 27 14  1  1
 28 21  1  0
 29 22  1  0
 30 40  1  0
 31 42  1  0
 32 41  1  0
 33  1  2  0
 34  3  2  0
 35  4  2  0
 36 23  1  0
 37  6  2  0
 38  8  2  0
 39  7  2  0
 40 10  1  0
 41 10  1  0
 30 50  1  0
 20 43  1  6
 18 44  1  0
 45 25  2  0
 46 23  2  0
 47 26  2  0
 31 48  1  0
 31 49  1  0
 32 50  1  0
 51 70  1  0
 52 71  1  0
 53 21  1  0
 54 22  1  0
 55 25  1  0
 12 56  1  6
 57 26  1  0
 58 43  1  0
 59 65  2  0
 60 44  1  0
 61  2  1  0
 62 58  1  0
 63 58  2  0
 64 62  2  0
 65 63  1  0
 66 59  1  0
 16 67  1  1
 19 68  1  0
 27 69  1  0
 70 77  1  0
 71 78  1  0
 72 56  1  0
 73 56  1  0
 74 66  1  0
 75 60  2  0
 76 60  1  0
 77 68  1  0
 78 69  1  0
 79 74  1  0
 80 76  2  0
 81 75  1  0
 82 80  1  0
 82 81  2  0
 64 59  1  0
 49 30  1  0
 32 48  1  0
 42 10  1  0
M  END