
  SciTegic12231509382D

 28 31  0  0  0  0            999 V2000
    5.7627   -8.1498    0.0000 N   0  0
    5.7627   -8.9749    0.0000 C   0  0
    6.4748   -9.3832    0.0000 N   0  0
    6.4748   -7.7331    0.0000 C   0  0
    7.1869   -8.1498    0.0000 C   0  0
    7.1834   -8.9749    0.0000 C   0  0
    7.9860   -9.4506    0.0000 N   0  0
    8.6090   -8.9809    0.0000 C   0  0
    8.6125   -8.1559    0.0000 C   0  0
    7.8992   -7.7380    0.0000 C   0  0
    9.3297   -7.7521    0.0000 O   0  0
    9.3213   -9.3975    0.0000 O   0  0
    7.9500  -10.2132    0.0000 C   0  0
    5.0488   -9.3884    0.0000 N   0  0
    5.0500  -10.2135    0.0000 C   0  0
    4.3291  -10.6238    0.0000 C   0  0
    4.3283  -11.4453    0.0000 C   0  0
    5.0416  -11.8606    0.0000 O   0  0
    5.7574  -11.4483    0.0000 C   0  0
    5.7598  -10.6206    0.0000 C   0  0
   10.0397   -8.1724    0.0000 C   0  0
   10.0263   -8.9967    0.0000 C   0  0
   10.7355   -9.4168    0.0000 C   0  0
   11.4554   -9.0121    0.0000 C   0  0
   11.4618   -8.1827    0.0000 C   0  0
   10.7520   -7.7663    0.0000 C   0  0
   10.7571   -6.9412    0.0000 F   0  0
   12.1660   -9.4313    0.0000 F   0  0
  1  4  2  0
  2 14  1  0
  2  3  2  0
 14 15  1  0
 15 16  1  0
  3  6  1  0
  5  4  1  0
  5 10  1  0
  6  7  1  0
  7  8  1  0
 15 20  1  0
 16 17  1  0
 17 18  1  0
 18 19  1  0
 19 20  1  0
  8  9  1  0
 11 21  1  0
  9 10  2  0
 21 22  2  0
  5  6  2  0
 22 23  1  0
  9 11  1  0
 23 24  2  0
 24 25  1  0
  8 12  2  0
 25 26  2  0
 26 21  1  0
  1  2  1  0
 26 27  1  0
  7 13  1  0
 24 28  1  0
M  END