
          11280715112D 1   1.00000     0.00000     0

 42 46  0     1  0            999 V2000
    0.5750   -2.8042    0.0000 C   0  0  0  0  0  0           0  0  0
    7.0042   -1.5667    0.0000 C   0  0  0  0  0  0           0  0  0
   -0.1375   -3.2167    0.0000 C   0  0  0  0  0  0           0  0  0
    0.5750   -1.9792    0.0000 C   0  0  0  0  0  0           0  0  0
    6.2917   -1.9792    0.0000 C   0  0  2  0  0  0           0  0  0
    0.5750   -0.3292    0.0000 C   0  0  0  0  0  0           0  0  0
   -1.5625   -4.0417    0.0000 C   0  0  0  0  0  0           0  0  0
    1.2917   -3.2167    0.0000 C   0  0  0  0  0  0           0  0  0
    7.0042   -0.7417    0.0000 O   0  0  0  0  0  0           0  0  0
    5.5750   -1.5667    0.0000 C   0  0  0  0  0  0           0  0  0
    1.2917   -1.5667    0.0000 C   0  0  0  0  0  0           0  0  0
   -0.8500   -2.8042    0.0000 C   0  0  0  0  0  0           0  0  0
   -0.1375   -1.5667    0.0000 C   0  0  0  0  0  0           0  0  0
   -0.1333   -4.0417    0.0000 C   0  0  0  0  0  0           0  0  0
   -1.5625   -3.2167    0.0000 C   0  0  0  0  0  0           0  0  0
    1.2917   -0.7417    0.0000 C   0  0  0  0  0  0           0  0  0
   -0.8458   -4.4542    0.0000 C   0  0  0  0  0  0           0  0  0
   -0.1375   -0.7417    0.0000 C   0  0  0  0  0  0           0  0  0
    0.5667    0.4958    0.0000 C   0  0  0  0  0  0           0  0  0
   -2.2750   -4.4542    0.0000 C   0  0  0  0  0  0           0  0  0
    4.8625   -1.9792    0.0000 C   0  0  0  0  0  0           0  0  0
    7.7167   -1.9792    0.0000 O   0  0  0  0  0  0           0  0  0
    3.4292   -2.8042    0.0000 C   0  0  0  0  0  0           0  0  0
    2.0042   -2.8042    0.0000 C   0  0  0  0  0  0           0  0  0
    6.2917   -2.8042    0.0000 O   0  0  0  0  0  0           0  0  0
    4.8542   -2.8125    0.0000 C   0  0  0  0  0  0           0  0  0
    4.1417   -1.5667    0.0000 C   0  0  0  0  0  0           0  0  0
    4.1417   -3.2167    0.0000 C   0  0  0  0  0  0           0  0  0
    3.4292   -1.9875    0.0000 C   0  0  0  0  0  0           0  0  0
    2.7167   -3.2167    0.0000 O   0  0  0  0  0  0           0  0  0
   -0.1458    0.9000    0.0000 C   0  0  0  0  0  0           0  0  0
    1.2792    0.9083    0.0000 C   0  0  0  0  0  0           0  0  0
   -2.9958   -4.0417    0.0000 C   0  0  0  0  0  0           0  0  0
   -2.2750   -5.2792    0.0000 C   0  0  0  0  0  0           0  0  0
    7.0042   -3.2167    0.0000 C   0  0  0  0  0  0           0  0  0
    7.0042   -4.0417    0.0000 C   0  0  0  0  0  0           0  0  0
    1.2792    1.7333    0.0000 C   0  0  0  0  0  0           0  0  0
   -3.7083   -4.4542    0.0000 C   0  0  0  0  0  0           0  0  0
   -2.9875   -5.6917    0.0000 C   0  0  0  0  0  0           0  0  0
   -0.1500    1.7208    0.0000 C   0  0  0  0  0  0           0  0  0
    0.5667    2.1458    0.0000 C   0  0  0  0  0  0           0  0  0
   -3.7083   -5.2792    0.0000 C   0  0  0  0  0  0           0  0  0
  2  5  1  0     0  0
  3  1  1  0     0  0
  4  1  1  0     0  0
  5 10  1  0     0  0
  6 18  1  0     0  0
  7 17  1  0     0  0
  8  1  2  0     0  0
  9  2  2  0     0  0
 10 21  1  0     0  0
 11  4  2  0     0  0
 12  3  2  0     0  0
 13  4  1  0     0  0
 14  3  1  0     0  0
 15 12  1  0     0  0
 16 11  1  0     0  0
 17 14  2  0     0  0
 18 13  2  0     0  0
 19  6  1  0     0  0
 20  7  1  0     0  0
 21 27  1  0     0  0
 22  2  1  0     0  0
 23 30  1  0     0  0
 24  8  1  0     0  0
  5 25  1  1     0  0
 26 28  1  0     0  0
 27 29  2  0     0  0
 28 23  2  0     0  0
 29 23  1  0     0  0
 30 24  1  0     0  0
 31 19  1  0     0  0
 32 19  2  0     0  0
 33 20  2  0     0  0
 34 20  1  0     0  0
 35 25  1  0     0  0
 36 35  1  0     0  0
 37 32  1  0     0  0
 38 33  1  0     0  0
 39 34  2  0     0  0
 40 31  2  0     0  0
 41 37  2  0     0  0
 42 39  1  0     0  0
 16  6  2  0     0  0
 15  7  2  0     0  0
 26 21  2  0     0  0
 40 41  1  0     0  0
 38 42  2  0     0  0
M  END