
  Mrv0541 04051115152D          

  6  6  0  0  0  0            999 V2000
   -0.0088    0.4472    0.0000 C   0  0  0  0  0  0  0  0  0  0  0  0
    0.6586   -0.0377    0.0000 C   0  0  0  0  0  0  0  0  0  0  0  0
   -0.6763   -0.0377    0.0000 C   0  0  0  0  0  0  0  0  0  0  0  0
   -0.0088    1.2722    0.0000 C   0  0  0  0  0  0  0  0  0  0  0  0
    0.4037   -0.8223    0.0000 C   0  0  0  0  0  0  0  0  0  0  0  0
   -0.4213   -0.8223    0.0000 N   0  0  0  0  0  0  0  0  0  0  0  0
  1  2  1  0  0  0  0
  1  3  2  0  0  0  0
  1  4  1  0  0  0  0
  2  5  2  0  0  0  0
  3  6  1  0  0  0  0
  5  6  1  0  0  0  0
M  END