
  CDK    9/16/09,9:45

 17 18  0  0  0  0  0  0  0  0999 V2000
   -4.9788   -2.8231    0.0000 C   0  0  0  0  0  0  0  0  0  0  0  0
   -4.9802   -3.6508    0.0000 C   0  0  0  0  0  0  0  0  0  0  0  0
   -4.2672   -4.0637    0.0000 C   0  0  0  0  0  0  0  0  0  0  0  0
   -3.5479   -3.6502    0.0000 C   0  0  0  0  0  0  0  0  0  0  0  0
   -3.5511   -2.8192    0.0000 C   0  0  0  0  0  0  0  0  0  0  0  0
   -4.2691   -2.4104    0.0000 C   0  0  0  0  0  0  0  0  0  0  0  0
   -5.6937   -2.4113    0.0000 Cl  0  0  0  0  0  0  0  0  0  0  0  0
   -2.8330   -4.0620    0.0000 C   0  0  0  0  0  0  0  0  0  0  0  0
   -2.1191   -3.6489    0.0000 C   0  0  0  0  0  0  0  0  0  0  0  0
   -1.4042   -4.0607    0.0000 C   0  0  0  0  0  0  0  0  0  0  0  0
   -1.3174   -4.8783    0.0000 C   0  0  0  0  0  0  0  0  0  0  0  0
   -0.5104   -5.0490    0.0000 N   0  0  0  0  0  0  0  0  0  0  0  0
   -0.0984   -4.3342    0.0000 C   0  0  0  0  0  0  0  0  0  0  0  0
   -0.6512   -3.7217    0.0000 C   0  0  0  0  0  0  0  0  0  0  0  0
    0.7243   -4.2471    0.0000 C   0  0  0  0  0  0  0  0  0  0  0  0
    1.2098   -4.9141    0.0000 O   0  0  0  0  0  0  0  0  0  0  0  0
    1.0590   -3.4932    0.0000 O   0  0  0  0  0  0  0  0  0  0  0  0
  8  9  1  0  0  0  0 
  4  5  1  0  0  0  0 
  9 10  1  0  0  0  0 
 10 11  2  0  0  0  0 
  2  3  1  0  0  0  0 
  5  6  2  0  0  0  0 
  6  1  1  0  0  0  0 
  1  2  2  0  0  0  0 
 11 12  1  0  0  0  0 
 12 13  1  0  0  0  0 
 13 14  2  0  0  0  0 
 14 10  1  0  0  0  0 
  1  7  1  0  0  0  0 
  3  4  2  0  0  0  0 
  4  8  1  0  0  0  0 
 15 16  1  0  0  0  0 
 15 17  2  0  0  0  0 
 13 15  1  0  0  0  0 
M  END