
  SciTegic04091416292D

 25 28  0  0  0  0            999 V2000
    5.5662   -4.0612    0.0000 C   0  0
    5.5651   -4.8807    0.0000 C   0  0
    6.2731   -5.2897    0.0000 C   0  0
    6.9828   -4.8802    0.0000 C   0  0
    6.9799   -4.0576    0.0000 N   0  0
    6.2713   -3.6523    0.0000 N   0  0
    7.6911   -5.2877    0.0000 O   0  0
    4.8570   -5.2887    0.0000 N   0  0
    4.8564   -6.1059    0.0000 C   0  0
    4.1490   -6.5131    0.0000 C   0  0
    4.1464   -7.3267    0.0000 C   0  0
    4.8519   -7.7397    0.0000 C   0  0
    5.5618   -7.3329    0.0000 C   0  0
    5.5660   -6.5131    0.0000 C   0  0
    7.6831   -3.6476    0.0000 C   0  0
    8.3926   -4.0552    0.0000 C   0  0
    9.0983   -3.6446    0.0000 C   0  0
    9.0957   -2.8266    0.0000 C   0  0
    8.3814   -2.4208    0.0000 C   0  0
    7.6787   -2.8338    0.0000 C   0  0
    4.8579   -3.6490    0.0000 C   0  0
    4.7723   -2.8363    0.0000 N   0  0
    3.9729   -2.6666    0.0000 C   0  0
    3.5644   -3.3744    0.0000 N   0  0
    4.1115   -3.9815    0.0000 N   0  0
  1  2  1  0
  2  3  2  0
  3  4  1  0
  4  5  1  0
  5  6  1  0
  6  1  2  0
  4  7  2  0
  2  8  1  0
  8  9  1  0
  9 10  1  0
  9 14  1  0
 10 11  1  0
 11 12  1  0
 12 13  1  0
 13 14  1  0
 15 16  2  0
 16 17  1  0
 17 18  2  0
 18 19  1  0
 19 20  2  0
 20 15  1  0
  5 15  1  0
 21 22  1  0
 22 23  2  0
 23 24  1  0
 24 25  1  0
 25 21  2  0
  1 21  1  0
M  END