
  SciTegic12231509382D

 40 40  0  0  0  0            999 V2000
   12.3775  -22.5750    0.0000 O   0  0
   11.6630  -22.9875    0.0000 P   0  0
   11.6630  -23.8125    0.0000 O   0  0
   11.2583  -22.2708    0.0000 O   0  0
   10.9542  -23.4000    0.0000 O   0  0
    8.1083  -20.9250    0.0000 C   0  0  2  0  0  0
    8.1083  -21.7500    0.0000 C   0  0  2  0  0  0
    8.8204  -22.1583    0.0000 C   0  0  1  0  0  0
    9.5324  -21.7500    0.0000 C   0  0  2  0  0  0
    9.5324  -20.9250    0.0000 C   0  0  1  0  0  0
    8.8204  -20.5083    0.0000 C   0  0  2  0  0  0
    8.8204  -19.6833    0.0000 O   0  0
    9.5348  -19.2708    0.0000 P   0  0
   10.2493  -19.6833    0.0000 O   0  0
    9.9417  -18.5500    0.0000 O   0  0
    9.1167  -18.5500    0.0000 O   0  0
   10.2480  -20.5146    0.0000 O   0  0
   10.9613  -20.9292    0.0000 P   0  0
   11.6770  -20.5188    0.0000 O   0  0
   10.5417  -21.6417    0.0000 O   0  0
   11.3667  -21.6417    0.0000 O   0  0
   10.2462  -22.1635    0.0000 O   0  0
   10.2450  -22.9885    0.0000 P   0  0
    9.4167  -22.9833    0.0000 O   0  0
    9.8250  -23.7000    0.0000 O   0  0
    8.8204  -22.9833    0.0000 O   0  0
    8.1059  -23.3958    0.0000 P   0  0
    7.6875  -22.6792    0.0000 O   0  0
    7.3875  -23.8042    0.0000 O   0  0
    7.3945  -22.1635    0.0000 O   0  0
    6.6794  -21.7521    0.0000 P   0  0
    5.9655  -22.1656    0.0000 O   0  0
    7.0875  -21.0333    0.0000 O   0  0
    6.2625  -21.0333    0.0000 O   0  0
    7.3927  -20.5146    0.0000 O   0  0
    7.3902  -19.6896    0.0000 P   0  0
    6.6746  -19.2792    0.0000 O   0  0
    7.7958  -18.9708    0.0000 O   0  0
    8.1000  -20.1000    0.0000 O   0  0
    8.1000  -24.2208    0.0000 O   0  0
  9 10  1  0
 18 21  1  0
 10 11  1  0
  9 22  1  6
  2  3  1  0
 22 23  1  0
 11 12  1  1
 23 24  2  0
  1  2  1  0
 23 25  1  0
 12 13  1  0
  8 26  1  1
  2  4  2  0
 26 27  1  0
 23  5  1  0
 13 14  1  0
 27 28  2  0
 27 29  1  0
 13 15  1  0
  7 30  1  6
  2  5  1  0
 30 31  1  0
 13 16  2  0
 31 32  1  0
  6  7  1  0
 31 33  2  0
 10 17  1  1
 31 34  1  0
  6 11  1  0
  6 35  1  1
 17 18  1  0
 35 36  1  0
  7  8  1  0
 36 37  1  0
 18 19  1  0
 36 38  1  0
  8  9  1  0
 36 39  2  0
 18 20  2  0
 27 40  1  0
M  END