
  SciTegic12231509382D

 21 23  0  0  0  0            999 V2000
   16.8335   -1.5601    0.0000 C   0  0
   16.8324   -2.3796    0.0000 C   0  0
   17.5404   -2.7886    0.0000 C   0  0
   17.5387   -1.1512    0.0000 C   0  0
   18.2473   -1.5565    0.0000 C   0  0
   18.2475   -2.3796    0.0000 C   0  0
   19.0305   -2.6338    0.0000 N   0  0
   19.5142   -1.9677    0.0000 C   0  0
   19.0301   -1.3019    0.0000 N   0  0
   16.1244   -2.7876    0.0000 I   0  0
   20.3314   -1.9674    0.0000 C   0  0
   20.7398   -1.2595    0.0000 C   0  0
   21.5570   -1.2592    0.0000 C   0  0
   21.9633   -1.9689    0.0000 C   0  0
   22.7798   -1.9690    0.0000 C   0  0
   23.1889   -1.2606    0.0000 C   0  0
   22.7757   -0.5507    0.0000 C   0  0
   21.9606   -0.5541    0.0000 C   0  0
   24.0061   -1.2593    0.0000 N   0  0
   24.4159   -1.9663    0.0000 C   0  0
   24.4135   -0.5509    0.0000 C   0  0
  1  2  2  0
  2  3  1  0
  3  6  2  0
  5  4  2  0
  4  1  1  0
  5  6  1  0
  6  7  1  0
  7  8  1  0
  8  9  2  0
  9  5  1  0
  2 10  1  0
  8 11  1  0
 11 12  2  0
 12 13  1  0
 13 14  2  0
 14 15  1  0
 15 16  2  0
 16 17  1  0
 17 18  2  0
 18 13  1  0
 16 19  1  0
 19 20  1  0
 19 21  1  0
M  END