
  SciTegic06051313552D

 37 41  0  0  0  0            999 V2000
    3.9797  -15.1249    0.0000 C   0  0
    3.9786  -15.9518    0.0000 C   0  0
    4.6929  -16.3645    0.0000 C   0  0
    4.6911  -14.7123    0.0000 C   0  0
    6.1969  -14.8629    0.0000 C   0  0
    5.4061  -15.1213    0.0000 C   0  0
    5.4087  -15.9539    0.0000 C   0  0
    6.2021  -16.2075    0.0000 N   0  0
    6.6871  -15.5306    0.0000 N   0  0
    6.4614  -16.9901    0.0000 C   0  0
    6.0392  -17.6976    0.0000 C   0  0
    5.2171  -17.6829    0.0000 C   0  0
    4.7944  -18.3899    0.0000 C   0  0
    5.1961  -19.1111    0.0000 C   0  0
    6.0249  -19.1206    0.0000 C   0  0
    6.4438  -18.4129    0.0000 C   0  0
    6.4291  -19.8392    0.0000 C   0  0
    6.0089  -20.5487    0.0000 N   0  0
    6.4131  -21.2674    0.0000 C   0  0
    5.9927  -21.9767    0.0000 O   0  0
    7.2375  -21.2767    0.0000 C   0  0
    6.6224  -14.1566    0.0000 N   0  0
    7.4468  -14.1719    0.0000 S   0  0
    7.9378  -14.8342    0.0000 C   0  0
    7.4191  -13.3408    0.0000 O   0  0
    8.2352  -13.9265    0.0000 O   0  0
    7.6906  -15.6229    0.0000 C   0  0
    8.3628  -16.1018    0.0000 C   0  0
    9.0255  -15.6091    0.0000 C   0  0
    8.7604  -14.8274    0.0000 S   0  0
    9.8126  -15.8546    0.0000 Cl  0  0
    4.6845  -13.8919    0.0000 O   0  0
    3.9671  -13.4855    0.0000 C   0  0
    7.7126  -21.9500    0.0000 O   0  0
    8.5007  -21.7039    0.0000 C   0  0
    8.5086  -20.8782    0.0000 C   0  0
    7.7256  -20.6169    0.0000 C   0  0
  1  2  2  0
  2  3  1  0
  3  7  2  0
  6  4  2  0
  4  1  1  0
  6  7  1  0
  5  6  1  0
  7  8  1  0
  8  9  1  0
  9  5  2  0
  8 10  1  0
 10 11  1  0
 11 12  2  0
 12 13  1  0
 13 14  2  0
 14 15  1  0
 15 16  2  0
 16 11  1  0
 15 17  1  0
 17 18  1  0
 18 19  1  0
 19 20  2  0
 19 21  1  0
  5 22  1  0
 22 23  1  0
 23 24  1  0
 23 25  2  0
 23 26  2  0
 27 28  1  0
 24 27  2  0
 28 29  2  0
 29 30  1  0
 30 24  1  0
 29 31  1  0
  4 32  1  0
 32 33  1  0
 34 35  1  0
 21 34  1  0
 35 36  1  0
 36 37  1  0
 37 21  1  0
M  END