
          11280715192D 1   1.00000     0.00000     0

 14 14  0     0  0            999 V2000
    6.6417    1.0458    0.0000 C   0  0  0  0  0  0           0  0  0
    8.7917    0.8333    0.0000 C   0  0  0  0  0  0           0  0  0
    8.2250    1.0375    0.0000 C   0  0  0  0  0  0           0  0  0
    9.4667    0.0458    0.0000 N   0  0  3  0  0  0           0  0  0
    7.2000    0.8500    0.0000 N   0  0  3  0  0  0           0  0  0
    6.5292    1.6333    0.0000 O   0  0  0  0  0  0           0  0  0
    6.1917    0.6583    0.0000 N   0  0  0  0  0  0           0  0  0
    9.3542    0.6333    0.0000 C   0  0  0  0  0  0           0  0  0
    7.6500    1.2375    0.0000 C   0  0  0  0  0  0           0  0  0
    9.0542   -0.3875    0.0000 C   0  0  0  0  0  0           0  0  0
   10.0042   -0.2167    0.0000 C   0  0  0  0  0  0           0  0  0
    7.3167    0.2625    0.0000 C   0  0  0  0  0  0           0  0  0
    9.9167   -0.8125    0.0000 C   0  0  0  0  0  0           0  0  0
    9.3375   -0.9125    0.0000 C   0  0  0  0  0  0           0  0  0
  2  3  3  0     0  0
  3  9  1  0     0  0
  4  8  1  0     0  0
  5  1  1  0     0  0
  6  1  2  0     0  0
  7  1  1  0     0  0
  8  2  1  0     0  0
  9  5  1  0     0  0
 10  4  1  0     0  0
 11  4  1  0     0  0
 12  5  1  0     0  0
 13 11  1  0     0  0
 14 10  1  0     0  0
 13 14  1  0     0  0
M  END