
          11280715062D 1   1.00000     0.00000     0

 33 37  0     0  0            999 V2000
   10.0625   -2.7167    0.0000 C   0  0  0  0  0  0           0  0  0
   10.0667   -1.9000    0.0000 C   0  0  0  0  0  0           0  0  0
    8.6417   -2.7125    0.0000 C   0  0  0  0  0  0           0  0  0
    9.3417   -3.1292    0.0000 O   0  0  0  0  0  0           0  0  0
    9.3542   -1.4792    0.0000 C   0  0  0  0  0  0           0  0  0
    8.6417   -1.8917    0.0000 C   0  0  0  0  0  0           0  0  0
   10.8417   -2.9792    0.0000 N   0  0  0  0  0  0           0  0  0
   11.3292   -2.3167    0.0000 N   0  0  0  0  0  0           0  0  0
    7.9292   -3.1250    0.0000 C   0  0  0  0  0  0           0  0  0
   10.8500   -1.6542    0.0000 N   0  0  0  0  0  0           0  0  0
    7.9292   -1.4750    0.0000 C   0  0  0  0  0  0           0  0  0
    2.2750   -4.1500    0.0000 N   0  0  3  0  0  0           0  0  0
    3.9250   -4.1500    0.0000 N   0  0  3  0  0  0           0  0  0
    7.2167   -2.7042    0.0000 C   0  0  0  0  0  0           0  0  0
    9.3667   -0.6542    0.0000 O   0  0  0  0  0  0           0  0  0
    7.2167   -1.8875    0.0000 C   0  0  0  0  0  0           0  0  0
    1.4500   -4.1500    0.0000 C   0  0  0  0  0  0           0  0  0
    2.6917   -4.8625    0.0000 C   0  0  0  0  0  0           0  0  0
    2.6917   -3.4292    0.0000 C   0  0  0  0  0  0           0  0  0
    3.5167   -3.4292    0.0000 C   0  0  0  0  0  0           0  0  0
    3.5167   -4.8625    0.0000 C   0  0  0  0  0  0           0  0  0
    1.0375   -3.4375    0.0000 C   0  0  0  0  0  0           0  0  0
    0.2125   -2.0125    0.0000 C   0  0  0  0  0  0           0  0  0
    6.3917   -2.7167    0.0000 O   0  0  0  0  0  0           0  0  0
    7.9250   -3.9500    0.0000 C   0  0  0  0  0  0           0  0  0
    1.4500   -2.7250    0.0000 C   0  0  0  0  0  0           0  0  0
    0.2167   -3.4417    0.0000 C   0  0  0  0  0  0           0  0  0
   -0.2000   -2.7292    0.0000 C   0  0  0  0  0  0           0  0  0
    1.0375   -2.0125    0.0000 C   0  0  0  0  0  0           0  0  0
    4.7500   -4.1500    0.0000 C   0  0  0  0  0  0           0  0  0
    5.1625   -3.4375    0.0000 C   0  0  0  0  0  0           0  0  0
    5.9875   -3.4375    0.0000 C   0  0  0  0  0  0           0  0  0
   -0.2083   -1.3000    0.0000 C   0  0  0  0  0  0           0  0  0
  2  1  1  0     0  0
  3  4  1  0     0  0
  4  1  1  0     0  0
  5  2  2  0     0  0
  6  3  2  0     0  0
  7  1  2  0     0  0
  8  7  1  0     0  0
  9  3  1  0     0  0
 10  2  1  0     0  0
 11  6  1  0     0  0
 12 18  1  0     0  0
 13 30  1  0     0  0
 14  9  2  0     0  0
 15  5  1  0     0  0
 16 14  1  0     0  0
 17 12  1  0     0  0
 18 21  1  0     0  0
 19 20  1  0     0  0
 20 13  1  0     0  0
 21 13  1  0     0  0
 22 17  1  0     0  0
 23 28  1  0     0  0
 24 14  1  0     0  0
 25  9  1  0     0  0
 26 22  2  0     0  0
 27 22  1  0     0  0
 28 27  2  0     0  0
 29 26  1  0     0  0
 30 31  1  0     0  0
 31 32  1  0     0  0
 32 24  1  0     0  0
 33 23  1  0     0  0
  8 10  2  0     0  0
  5  6  1  0     0  0
 16 11  2  0     0  0
 19 12  1  0     0  0
 29 23  2  0     0  0
M  END