
  SciTegic04201611412D

 22 24  0  0  0  0            999 V2000
    1.6852   -0.3846    0.0000 C   0  0
    1.3514    1.0778    0.0000 N   0  0
    0.0000    1.7286    0.0000 C   0  0
    0.7500   -1.5574    0.0000 C   0  0
   -0.7500   -1.5574    0.0000 N   0  0
   -1.6852   -0.3847    0.0000 C   0  0
   -1.3515    1.0777    0.0000 C   0  0
   -1.4011   -2.9095    0.0000 C   0  0
   -2.9046   -2.9463    0.0000 C   0  0
   -3.6237   -4.2627    0.0000 N   0  0
   -2.8432   -5.5436    0.0000 C   0  0
   -1.3436   -5.5082    0.0000 C   0  0
   -0.6245   -4.1918    0.0000 C   0  0
    2.5244    2.0171    0.0000 C   0  0
    2.2987    3.5009    0.0000 C   0  0
    3.4701    4.4390    0.0000 C   0  0
    3.2443    5.9228    0.0000 C   0  0
    4.4138    6.8621    0.0000 C   0  0
    4.1851    8.3446    0.0000 C   0  0
    2.7869    8.8878    0.0000 C   0  0
    1.6174    7.9485    0.0000 C   0  0
    1.8461    6.4660    0.0000 C   0  0
  1  2  1  0
  2  3  1  0
  1  4  1  0
  5  6  1  0
  6  7  1  0
  7  3  1  0
  4  5  1  0
  8  9  2  0
  9 10  1  0
 10 11  2  0
 11 12  1  0
 12 13  2  0
 13  8  1  0
  5  8  1  0
  2 14  1  0
 14 15  1  0
 15 16  1  0
 16 17  1  0
 17 18  2  0
 18 19  1  0
 19 20  2  0
 20 21  1  0
 21 22  2  0
 22 17  1  0
M  END