
          11280715362D 1   1.00000     0.00000     0

 36 37  0     1  0            999 V2000
    2.9167   -2.8667    0.0000 P   0  0  3  0  0  0           0  0  0
    6.0542   -5.0667    0.0000 C   0  0  0  0  0  0           0  0  0
    6.4042   -4.5917    0.0000 N   0  0  0  0  0  0           0  0  0
    7.3667   -4.1792    0.0000 C   0  0  0  0  0  0           0  0  0
    5.4542   -5.0042    0.0000 C   0  0  1  0  0  0           0  0  0
    7.0167   -4.6542    0.0000 C   0  0  2  0  0  0           0  0  0
    5.1042   -5.4792    0.0000 N   0  0  0  0  0  0           0  0  0
    7.9667   -4.2417    0.0000 N   0  0  0  0  0  0           0  0  0
    4.4917   -5.4167    0.0000 C   0  0  0  0  0  0           0  0  0
    3.5042   -2.7542    0.0000 O   0  0  0  0  0  0           0  0  0
    2.8042   -2.2792    0.0000 O   0  0  0  0  0  0           0  0  0
    6.3042   -5.6292    0.0000 O   0  0  0  0  0  0           0  0  0
    5.2167   -4.4417    0.0000 C   0  0  0  0  0  0           0  0  0
    7.1292   -3.6292    0.0000 O   0  0  0  0  0  0           0  0  0
    7.2542   -5.2167    0.0000 C   0  0  0  0  0  0           0  0  0
    4.2542   -4.8667    0.0000 O   0  0  0  0  0  0           0  0  0
    2.3167   -2.9917    0.0000 O   0  0  0  0  0  0           0  0  0
    3.0292   -3.4667    0.0000 O   0  0  0  0  0  0           0  0  0
    3.9042   -3.2167    0.0000 C   0  0  0  0  0  0           0  0  0
    4.6917   -4.1417    0.0000 C   0  0  0  0  0  0           0  0  0
    8.3292   -3.7667    0.0000 C   0  0  0  0  0  0           0  0  0
    8.9167   -3.8292    0.0000 C   0  0  0  0  0  0           0  0  0
   10.0167   -4.3167    0.0000 C   0  0  0  0  0  0           0  0  0
    4.0917   -4.2417    0.0000 C   0  0  0  0  0  0           0  0  0
    4.8917   -3.5667    0.0000 C   0  0  0  0  0  0           0  0  0
    3.7042   -3.7917    0.0000 C   0  0  0  0  0  0           0  0  0
    4.4917   -3.1167    0.0000 C   0  0  0  0  0  0           0  0  0
    9.4042   -3.4792    0.0000 C   0  0  0  0  0  0           0  0  0
    8.9917   -4.4292    0.0000 C   0  0  0  0  0  0           0  0  0
    9.9542   -3.7292    0.0000 C   0  0  0  0  0  0           0  0  0
    9.5292   -4.6792    0.0000 C   0  0  0  0  0  0           0  0  0
    7.6292   -5.6792    0.0000 C   0  0  3  0  0  0           0  0  0
    4.1417   -5.8917    0.0000 C   0  0  0  0  0  0           0  0  0
   10.5667   -4.5667    0.0000 C   0  0  0  0  0  0           0  0  0
    8.2167   -5.7542    0.0000 C   0  0  0  0  0  0           0  0  0
    7.4042   -6.2417    0.0000 C   0  0  0  0  0  0           0  0  0
  2  5  1  0     0  0
  3  2  1  0     0  0
  4  6  1  0     0  0
  5 13  1  1     0  0
  6  3  1  0     0  0
  7  5  1  0     0  0
  8  4  1  0     0  0
  9  7  1  0     0  0
 10  1  1  0     0  0
 11  1  2  0     0  0
 12  2  2  0     0  0
 13 20  1  0     0  0
 14  4  2  0     0  0
  6 15  1  6     0  0
 16  9  2  0     0  0
 17  1  1  0     0  0
 18  1  1  0     0  0
 19 10  1  0     0  0
 20 25  1  0     0  0
 21  8  1  0     0  0
 22 21  1  0     0  0
 23 31  1  0     0  0
 24 26  1  0     0  0
 25 27  2  0     0  0
 26 19  2  0     0  0
 27 19  1  0     0  0
 28 22  2  0     0  0
 29 22  1  0     0  0
 30 28  1  0     0  0
 31 29  2  0     0  0
 32 15  1  0     0  0
 33  9  1  0     0  0
 34 23  1  0     0  0
 35 32  1  0     0  0
 36 32  1  0     0  0
 24 20  2  0     0  0
 23 30  2  0     0  0
M  END