
          01230816042D 1   1.00000     0.00000     0

 49 54  0     1  0            999 V2000
   -5.2723  -14.1250    0.0000 C   0  0  0  0  0  0           0  0  0
   -5.2734  -14.9523    0.0000 C   0  0  0  0  0  0           0  0  0
   -4.5586  -15.3652    0.0000 C   0  0  0  0  0  0           0  0  0
   -4.5604  -13.7122    0.0000 C   0  0  0  0  0  0           0  0  0
   -3.8450  -14.1213    0.0000 C   0  0  0  0  0  0           0  0  0
   -3.8416  -14.9544    0.0000 C   0  0  0  0  0  0           0  0  0
   -3.1224  -15.3657    0.0000 C   0  0  0  0  0  0           0  0  0
   -2.4020  -14.9485    0.0000 C   0  0  0  0  0  0           0  0  0
   -4.3417  -16.1167    0.0000 N   0  0  0  0  0  0           0  0  0
   -3.3417  -16.1583    0.0000 C   0  0  0  0  0  0           0  0  0
   -3.1293  -13.6995    0.0000 C   0  0  0  0  0  0           0  0  0
   -2.4035  -14.1149    0.0000 C   0  0  2  0  0  0           0  0  0
   -1.6850  -13.6964    0.0000 N   0  0  3  0  0  0           0  0  0
   -1.6859  -12.8608    0.0000 C   0  0  0  0  0  0           0  0  0
   -2.4116  -12.4455    0.0000 C   0  0  2  0  0  0           0  0  0
   -3.1364  -12.8657    0.0000 C   0  0  0  0  0  0           0  0  0
   -0.9695  -14.1071    0.0000 C   0  0  0  0  0  0           0  0  0
   -2.4139  -11.6205    0.0000 C   0  0  0  0  0  0           0  0  0
   -1.7006  -11.2060    0.0000 N   0  0  0  0  0  0           0  0  0
   -3.1295  -11.2100    0.0000 O   0  0  0  0  0  0           0  0  0
   -1.7029  -10.3810    0.0000 C   0  0  2  0  0  0           0  0  0
   -0.9896   -9.9665    0.0000 C   0  0  0  0  0  0           0  0  0
   -2.4185   -9.9705    0.0000 C   0  0  3  0  0  0           0  0  0
   -2.4208   -9.1455    0.0000 C   0  0  0  0  0  0           0  0  0
   -0.2739  -10.3770    0.0000 N   0  0  0  0  0  0           0  0  0
   -0.9919   -9.1415    0.0000 O   0  0  0  0  0  0           0  0  0
    0.4394   -9.9625    0.0000 C   0  0  2  0  0  0           0  0  0
    1.0300  -10.4355    0.0000 C   0  0  0  0  0  0           0  0  0
    0.4371   -9.1375    0.0000 C   0  0  0  0  0  0           0  0  0
    1.1504   -8.7230    0.0000 C   0  0  0  0  0  0           0  0  0
    1.8635   -9.1357    0.0000 C   0  0  0  0  0  0           0  0  0
    2.5763   -8.7219    0.0000 C   0  0  0  0  0  0           0  0  0
    2.5744   -7.8960    0.0000 C   0  0  0  0  0  0           0  0  0
    1.8538   -7.4857    0.0000 C   0  0  0  0  0  0           0  0  0
    1.1439   -7.9019    0.0000 C   0  0  0  0  0  0           0  0  0
    0.7167  -11.1833    0.0000 O   0  0  0  0  0  0           0  0  0
    1.8322  -10.2429    0.0000 N   0  0  3  0  0  0           0  0  0
    2.4549  -10.7789    0.0000 C   0  0  1  0  0  0           0  0  0
    3.1583  -10.3478    0.0000 C   0  0  0  0  0  0           0  0  0
    2.9656   -9.5455    0.0000 C   0  0  0  0  0  0           0  0  0
    2.1432   -9.4810    0.0000 C   0  0  0  0  0  0           0  0  0
    2.3886  -11.6012    0.0000 C   0  0  0  0  0  0           0  0  0
    1.6433  -11.9550    0.0000 O   0  0  0  0  0  0           0  0  0
    3.0676  -12.0698    0.0000 N   0  0  0  0  0  0           0  0  0
   -1.6917  -14.5250    0.0000 H   0  0  0  0  0  0           0  0  0
   -3.1318  -10.3850    0.0000 C   0  0  0  0  0  0           0  0  0
    3.2887   -7.4763    0.0000 N   0  3  0  0  0  0           0  0  0
    3.2853   -6.6513    0.0000 O   0  0  0  0  0  0           0  0  0
    4.0049   -7.8859    0.0000 O   0  5  0  0  0  0           0  0  0
 21 23  1  1     0  0
  9 10  1  0     0  0
 23 24  1  0     0  0
 11 12  1  0     0  0
 22 25  1  0     0  0
  5  6  1  0     0  0
 22 26  2  0     0  0
 25 27  1  0     0  0
  2  3  1  0     0  0
 27 28  1  0     0  0
  3  6  2  0     0  0
 27 29  1  1     0  0
  1  2  2  0     0  0
 29 30  1  0     0  0
  5 11  1  0     0  0
 30 31  2  0     0  0
 11 16  2  0     0  0
 31 32  1  0     0  0
 12 13  1  0     0  0
 32 33  2  0     0  0
 13 14  1  0     0  0
 33 34  1  0     0  0
 14 15  1  0     0  0
 34 35  2  0     0  0
 35 30  1  0     0  0
 15 16  1  0     0  0
 28 36  2  0     0  0
  6  7  1  0     0  0
 28 37  1  0     0  0
 37 38  1  0     0  0
 13 17  1  0     0  0
  7  8  1  0     0  0
 15 18  1  6     0  0
  8 12  1  0     0  0
 38 39  1  0     0  0
 39 40  1  0     0  0
 40 41  1  0     0  0
 41 37  1  0     0  0
 18 19  1  0     0  0
 38 42  1  1     0  0
  5  4  2  0     0  0
 42 43  2  0     0  0
 18 20  2  0     0  0
 42 44  1  0     0  0
  3  9  1  0     0  0
 12 45  1  1     0  0
 19 21  1  0     0  0
 23 46  1  0     0  0
  4  1  1  0     0  0
 21 22  1  0     0  0
  7 10  2  0     0  0
 47 48  2  0     0  0
 47 49  1  0     0  0
 33 47  1  0     0  0
M  CHG  2  47   1  49  -1
M  END