
          02060813472D 1   1.00000     0.00000     0

 33 36  0     1  0            999 V2000
    8.3083  -13.7375    0.0000 C   0  0  0  0  0  0           0  0  0
    8.3083  -14.5625    0.0000 O   0  0  0  0  0  0           0  0  0
    9.0204  -14.9708    0.0000 C   0  0  0  0  0  0           0  0  0
    9.7324  -14.5625    0.0000 C   0  0  0  0  0  0           0  0  0
    9.7324  -13.7375    0.0000 N   0  0  3  0  0  0           0  0  0
    9.0204  -13.3208    0.0000 C   0  0  0  0  0  0           0  0  0
   10.4480  -13.3271    0.0000 C   0  0  0  0  0  0           0  0  0
   11.1613  -13.7417    0.0000 C   0  0  0  0  0  0           0  0  0
   10.4505  -12.5021    0.0000 O   0  0  0  0  0  0           0  0  0
   11.8770  -13.3313    0.0000 C   0  0  1  0  0  0           0  0  0
   11.8708  -12.5042    0.0000 C   0  0  0  0  0  0           0  0  0
   12.5822  -12.0864    0.0000 C   0  0  3  0  0  0           0  0  0
   13.2990  -12.4993    0.0000 C   0  0  0  0  0  0           0  0  0
   14.0083  -12.0850    0.0000 C   0  0  0  0  0  0           0  0  0
   14.0064  -11.2596    0.0000 C   0  0  0  0  0  0           0  0  0
   13.2890  -10.8503    0.0000 C   0  0  0  0  0  0           0  0  0
   12.5735  -11.2662    0.0000 C   0  0  0  0  0  0           0  0  0
   12.5924  -13.7422    0.0000 C   0  0  0  0  0  0           0  0  0
   12.5942  -14.5672    0.0000 O   0  0  0  0  0  0           0  0  0
   13.3059  -13.3281    0.0000 N   0  0  0  0  0  0           0  0  0
   14.0207  -13.7390    0.0000 C   0  0  2  0  0  0           0  0  0
   14.3961  -13.0006    0.0000 C   0  0  0  0  0  0           0  0  0
   14.7714  -12.2629    0.0000 N   0  0  0  0  0  0           0  0  0
   13.6739  -14.4860    0.0000 C   0  0  0  0  0  0           0  0  0
   14.4206  -15.0103    0.0000 C   0  0  0  0  0  0           0  0  0
   15.0919  -14.5305    0.0000 N   0  0  3  0  0  0           0  0  0
   14.8429  -13.7440    0.0000 C   0  0  0  0  0  0           0  0  0
   15.8745  -14.7915    0.0000 C   0  0  3  0  0  0           0  0  0
   16.0345  -15.6018    0.0000 C   0  0  0  0  0  0           0  0  0
   16.8131  -15.8635    0.0000 C   0  0  0  0  0  0           0  0  0
   17.4335  -15.3192    0.0000 C   0  0  0  0  0  0           0  0  0
   17.2700  -14.5096    0.0000 C   0  0  0  0  0  0           0  0  0
   16.4860  -14.2443    0.0000 C   0  0  0  0  0  0           0  0  0
 14 15  1  0     0  0
 15 16  1  0     0  0
 16 17  1  0     0  0
  1  6  1  0     0  0
 10 18  1  0     0  0
  7  9  2  0     0  0
 18 19  2  0     0  0
  2  3  1  0     0  0
 18 20  1  0     0  0
  8 10  1  0     0  0
 21 20  1  1     0  0
  3  4  1  0     0  0
 21 22  1  0     0  0
 10 11  1  1     0  0
 22 23  3  0     0  0
  4  5  1  0     0  0
 21 24  1  0     0  0
 11 12  1  0     0  0
 12 13  1  0     0  0
  5  6  1  0     0  0
 24 25  1  0     0  0
 25 26  1  0     0  0
 26 27  1  0     0  0
 21 27  1  0     0  0
 26 28  1  0     0  0
 28 29  1  0     0  0
  5  7  1  0     0  0
  1  2  1  0     0  0
  7  8  1  0     0  0
 12 17  1  0     0  0
 13 14  1  0     0  0
 28 33  1  0     0  0
 29 30  1  0     0  0
 30 31  1  0     0  0
 31 32  1  0     0  0
 32 33  1  0     0  0
M  END