
  SciTegic05061116452D

 33 37  0  0  0  0            999 V2000
   20.0052   -6.4831    0.0000 N   0  0
   20.7168   -6.0745    0.0000 C   0  0
   20.7168   -5.2494    0.0000 N   0  0
   20.0052   -4.8331    0.0000 C   0  0
   19.2934   -6.0745    0.0000 C   0  0
   19.2935   -5.2449    0.0000 C   0  0
   18.5045   -4.9885    0.0000 N   0  0
   18.0168   -5.6596    0.0000 C   0  0
   18.5045   -6.3306    0.0000 N   0  0
   18.2496   -7.1152    0.0000 C   0  0
   17.4426   -7.2868    0.0000 C   0  0
   17.1876   -8.0713    0.0000 O   0  0
   16.8906   -6.6737    0.0000 O   0  0
   20.0071   -4.0081    0.0000 N   0  0
   21.4307   -6.4878    0.0000 N   0  0
   22.1456   -6.0762    0.0000 C   0  0
   22.8596   -6.4895    0.0000 C   0  0
   20.7225   -3.5973    0.0000 C   0  0
   22.8540   -7.3128    0.0000 C   0  0
   23.5672   -7.7260    0.0000 C   0  0
   24.2831   -7.3144    0.0000 C   0  0
   24.2814   -6.4851    0.0000 C   0  0
   23.5677   -6.0756    0.0000 C   0  0
   24.9938   -7.7240    0.0000 C   0  0
   24.9919   -8.5499    0.0000 C   0  0
   25.7022   -8.9622    0.0000 C   0  0
   26.4191   -8.5531    0.0000 C   0  0
   26.4210   -7.7272    0.0000 C   0  0
   25.7061   -7.3103    0.0000 C   0  0
   21.4752   -3.9324    0.0000 C   0  0
   22.0286   -3.3206    0.0000 C   0  0
   21.6178   -2.6051    0.0000 C   0  0
   20.8105   -2.7749    0.0000 C   0  0
 15 16  1  0
  6  7  1  0
 16 17  1  0
  7  8  2  0
 14 18  1  0
  8  9  1  0
 17 19  2  0
  9  5  1  0
 19 20  1  0
  3  4  2  0
 20 21  2  0
  9 10  1  0
 21 22  1  0
  5  6  2  0
 22 23  2  0
 23 17  1  0
 24 25  1  0
 10 11  1  0
 11 12  1  0
  6  4  1  0
 11 13  2  0
  5  1  1  0
 24 29  1  0
 25 26  1  0
 26 27  1  0
 27 28  1  0
 28 29  1  0
 21 24  1  0
 18 30  1  0
  4 14  1  0
  1  2  2  0
  2 15  1  0
  2  3  1  0
 30 31  1  0
 31 32  1  0
 32 33  1  0
 33 18  1  0
M  END