
  SciTegic09291413392D

 38 42  0  0  0  0            999 V2000
   17.7827   -5.0960    0.0000 C   0  0
   17.7815   -5.9234    0.0000 C   0  0
   18.4963   -6.3363    0.0000 C   0  0
   19.2129   -5.9229    0.0000 C   0  0
   19.2099   -5.0924    0.0000 C   0  0
   18.4945   -4.6832    0.0000 C   0  0
   19.9229   -4.6772    0.0000 C   0  0
   20.6362   -5.0900    0.0000 C   0  0
   20.6249   -3.4399    0.0000 C   0  0
   19.9154   -3.8569    0.0000 N   0  0
   21.3459   -3.8496    0.0000 C   0  0
   21.3443   -4.6733    0.0000 N   0  0
   22.1274   -4.9295    0.0000 C   0  0
   22.6129   -4.2639    0.0000 C   0  0
   22.1299   -3.5966    0.0000 N   0  0
   20.6189   -2.6150    0.0000 N   0  0
   19.9014   -2.2077    0.0000 C   0  0
   19.8987   -1.3849    0.0000 C   0  0
   19.1821   -0.9777    0.0000 C   0  0
   18.4696   -1.3955    0.0000 C   0  0
   18.4783   -2.2248    0.0000 C   0  0
   19.1955   -2.6282    0.0000 C   0  0
   17.0681   -4.6836    0.0000 C   0  0
   16.3537   -5.0964    0.0000 N   0  0
   15.6391   -4.6840    0.0000 C   0  0
   15.6384   -3.8584    0.0000 C   0  0
   14.9246   -3.4461    0.0000 C   0  0
   14.2092   -3.8589    0.0000 C   0  0
   14.2121   -4.6882    0.0000 C   0  0
   14.9264   -5.0967    0.0000 C   0  0
   13.4941   -3.4475    0.0000 C   0  0
   13.4928   -2.6224    0.0000 O   0  0
   12.7802   -3.8611    0.0000 O   0  0
   17.7683   -2.6449    0.0000 O   0  0
   17.0494   -2.2402    0.0000 C   0  0
   17.7516   -0.9891    0.0000 O   0  0
   17.7445   -0.1642    0.0000 C   0  0
   17.0679   -3.8586    0.0000 O   0  0
  1  2  2  0
  2  3  1  0
  3  4  2  0
  4  5  1  0
  5  6  2  0
  6  1  1  0
  5  7  1  0
  7  8  2  0
  8 12  1  0
 11  9  1  0
  9 10  2  0
 10  7  1  0
 11 12  1  0
 12 13  1  0
 13 14  2  0
 14 15  1  0
 15 11  2  0
  9 16  1  0
 16 17  1  0
 17 18  2  0
 18 19  1  0
 19 20  2  0
 20 21  1  0
 21 22  2  0
 22 17  1  0
  1 23  1  0
 23 24  1  0
 24 25  1  0
 25 26  2  0
 26 27  1  0
 27 28  2  0
 28 29  1  0
 29 30  2  0
 30 25  1  0
 28 31  1  0
 31 32  2  0
 31 33  1  0
 21 34  1  0
 34 35  1  0
 20 36  1  0
 36 37  1  0
 23 38  2  0
M  END