
          08180812482D 1   1.00000     0.00000     0

 19 20  0     0  0            999 V2000
    7.8611  -10.0416    0.0000 N   0  0  0  0  0  0           0  0  0
    7.8599  -10.8690    0.0000 C   0  0  0  0  0  0           0  0  0
    8.5747  -11.2819    0.0000 C   0  0  0  0  0  0           0  0  0
    8.5729   -9.6289    0.0000 C   0  0  0  0  0  0           0  0  0
    9.2883  -10.0380    0.0000 C   0  0  0  0  0  0           0  0  0
    9.2886  -10.8690    0.0000 C   0  0  0  0  0  0           0  0  0
   10.0446   -9.7086    0.0000 C   0  0  0  0  0  0           0  0  0
   10.7081  -10.1989    0.0000 N   0  3  0  0  0  0           0  0  0
   10.6985  -11.0232    0.0000 C   0  0  0  0  0  0           0  0  0
   11.4811  -11.2845    0.0000 S   0  0  0  0  0  0           0  0  0
   11.9714  -10.6209    0.0000 C   0  0  0  0  0  0           0  0  0
   11.4918   -9.9497    0.0000 C   0  0  0  0  0  0           0  0  0
   11.7523   -9.1669    0.0000 C   0  0  0  0  0  0           0  0  0
   12.7964  -10.6275    0.0000 C   0  0  0  0  0  0           0  0  0
   13.2031  -11.3453    0.0000 C   0  0  0  0  0  0           0  0  0
   14.0281  -11.3519    0.0000 O   0  0  0  0  0  0           0  0  0
    7.1451  -11.2809    0.0000 C   0  0  0  0  0  0           0  0  0
    8.5705   -8.8039    0.0000 N   0  0  0  0  0  0           0  0  0
    6.4346  -11.6927    0.0000 N   0  0  0  0  0  0           0  0  0
  4  1  1  0     0  0
  5  6  1  0     0  0
  9 10  1  0     0  0
 10 11  1  0     0  0
 11 12  2  0     0  0
 12  8  1  0     0  0
  2  3  1  0     0  0
 12 13  1  0     0  0
  3  6  2  0     0  0
 11 14  1  0     0  0
  5  7  1  0     0  0
 14 15  1  0     0  0
  1  2  2  0     0  0
 15 16  1  0     0  0
  7  8  1  0     0  0
  2 17  1  0     0  0
  8  9  2  0     0  0
  4 18  1  0     0  0
  5  4  2  0     0  0
 17 19  3  0     0  0
M  CHG  1   8   1
M  END