
          11280715422D 1   1.00000     0.00000     0

 30 33  0     1  0            999 V2000
   -1.8875   -0.6417    0.0000 C   0  0  0  0  0  0           0  0  0
   -1.0833   -0.8042    0.0000 N   0  0  0  0  0  0           0  0  0
   -0.6833   -0.0917    0.0000 C   0  0  0  0  0  0           0  0  0
   -2.5083   -1.1917    0.0000 N   0  0  0  0  0  0           0  0  0
   -1.2458    0.5083    0.0000 C   0  0  0  0  0  0           0  0  0
   -1.9833    0.1625    0.0000 S   0  0  0  0  0  0           0  0  0
   -3.2875   -0.9375    0.0000 C   0  0  0  0  0  0           0  0  0
    0.1125    0.0833    0.0000 C   0  0  0  0  0  0           0  0  0
   -1.0875    1.3208    0.0000 C   0  0  0  0  0  0           0  0  0
    2.0542   -0.9042    0.0000 C   0  0  0  0  0  0           0  0  0
    0.6750   -0.5167    0.0000 O   0  0  0  0  0  0           0  0  0
   -3.9208   -1.4792    0.0000 O   0  0  0  0  0  0           0  0  0
    1.4792   -0.3167    0.0000 C   0  0  0  0  0  0           0  0  0
   -3.4625   -0.1292    0.0000 C   0  0  1  0  0  0           0  0  0
    2.8542   -0.6917    0.0000 C   0  0  0  0  0  0           0  0  0
   -4.2458    0.1333    0.0000 N   0  0  0  0  0  0           0  0  0
   -0.3208    1.6000    0.0000 C   0  0  0  0  0  0           0  0  0
    2.5000    0.6833    0.0000 C   0  0  0  0  0  0           0  0  0
    1.6917    0.4625    0.0000 C   0  0  0  0  0  0           0  0  0
    1.8500   -1.7042    0.0000 C   0  0  0  0  0  0           0  0  0
    3.0750    0.1000    0.0000 C   0  0  0  0  0  0           0  0  0
    3.4417   -1.2792    0.0000 C   0  0  0  0  0  0           0  0  0
   -2.8458    0.4208    0.0000 C   0  0  0  0  0  0           0  0  0
    0.3125    1.0708    0.0000 C   0  0  0  0  0  0           0  0  0
   -0.1625    2.4083    0.0000 C   0  0  0  0  0  0           0  0  0
    2.4167   -2.2875    0.0000 C   0  0  0  0  0  0           0  0  0
    3.2292   -2.0667    0.0000 C   0  0  0  0  0  0           0  0  0
    0.6125    2.6833    0.0000 C   0  0  0  0  0  0           0  0  0
    1.0792    1.3458    0.0000 C   0  0  0  0  0  0           0  0  0
    1.2375    2.1458    0.0000 C   0  0  0  0  0  0           0  0  0
  2  1  2  0     0  0
  3  2  1  0     0  0
  4  1  1  0     0  0
  5  6  1  0     0  0
  6  1  1  0     0  0
  7  4  1  0     0  0
  8  3  1  0     0  0
  9  5  1  0     0  0
 10 13  2  0     0  0
 11  8  1  0     0  0
 12  7  2  0     0  0
 13 11  1  0     0  0
 14  7  1  0     0  0
 15 10  1  0     0  0
 16 14  1  0     0  0
 17  9  1  0     0  0
 18 19  2  0     0  0
 19 13  1  0     0  0
 20 10  1  0     0  0
 21 18  1  0     0  0
 22 15  1  0     0  0
 14 23  1  1     0  0
 24 17  2  0     0  0
 25 17  1  0     0  0
 26 20  2  0     0  0
 27 26  1  0     0  0
 28 25  2  0     0  0
 29 24  1  0     0  0
 30 28  1  0     0  0
  5  3  2  0     0  0
 30 29  2  0     0  0
 21 15  2  0     0  0
 27 22  2  0     0  0
M  END