
  SciTegic12231509382D

 22 23  0  0  0  0            999 V2000
   -1.9542   -0.6333    0.0000 C   0  0
   -1.3417   -0.2792    0.0000 C   0  0
    0.4958    0.7917    0.0000 O   0  0
    1.1083    0.4375    0.0000 C   0  0
   -2.5708   -0.2792    0.0000 F   0  0
   -1.6042   -1.2417    0.0000 F   0  0
   -2.3125   -1.2417    0.0000 F   0  0
    1.1125   -0.2708    0.0000 C   0  0
   -0.7292   -0.6333    0.0000 C   0  0
   -1.3417    0.4333    0.0000 C   0  0
   -0.1167    0.4333    0.0000 C   0  0
    1.7208    0.7958    0.0000 C   0  0
   -0.1167   -0.2792    0.0000 C   0  0
   -0.7292    0.7875    0.0000 C   0  0
    2.9500    0.8000    0.0000 N   0  0
    2.3375    0.4417    0.0000 C   0  0
    0.4958   -0.6250    0.0000 C   0  0
    1.7250   -0.6167    0.0000 C   0  0
    3.5625    0.4458    0.0000 C   0  0
    0.5000   -1.3292    0.0000 C   0  0
    1.7292   -1.3250    0.0000 C   0  0
    1.1125   -1.6833    0.0000 C   0  0
  2  1  1  0
  3 11  1  0
  4  3  1  0
  5  1  1  0
  6  1  1  0
  7  1  1  0
  8  4  1  0
  9  2  1  0
 10  2  2  0
 11 13  1  0
 12  4  1  0
 13  9  2  0
 14 10  1  0
 15 16  1  0
 16 12  1  0
 17  8  2  0
 18  8  1  0
 19 15  1  0
 20 17  1  0
 21 18  2  0
 22 21  1  0
 14 11  2  0
 22 20  2  0
M  END