
          11280715182D 1   1.00000     0.00000     0

 39 43  0     0  0            999 V2000
   -1.9583    1.3958    0.0000 C   0  0  0  0  0  0           0  0  0
   -2.7083    1.0583    0.0000 N   0  0  3  0  0  0           0  0  0
   -3.2625    1.6708    0.0000 N   0  0  0  0  0  0           0  0  0
   -2.0458    2.2208    0.0000 C   0  0  0  0  0  0           0  0  0
   -2.8500    2.3958    0.0000 C   0  0  0  0  0  0           0  0  0
   -1.2375    0.9833    0.0000 N   0  0  0  0  0  0           0  0  0
   -0.5250    1.4000    0.0000 C   0  0  0  0  0  0           0  0  0
    0.9042    1.4083    0.0000 C   0  0  0  0  0  0           0  0  0
    0.1875    0.9875    0.0000 N   0  0  0  0  0  0           0  0  0
    1.6167    0.9958    0.0000 C   0  0  0  0  0  0           0  0  0
    2.3292    1.4083    0.0000 C   0  0  0  0  0  0           0  0  0
   -2.8833    0.2583    0.0000 C   0  0  0  0  0  0           0  0  0
   -3.1958    3.1458    0.0000 C   0  0  3  0  0  0           0  0  0
    5.1792    2.2458    0.0000 N   0  0  3  0  0  0           0  0  0
   -0.5333    2.2250    0.0000 O   0  0  0  0  0  0           0  0  0
    2.3167    2.2333    0.0000 C   0  0  0  0  0  0           0  0  0
    0.8917    2.2250    0.0000 C   0  0  0  0  0  0           0  0  0
    1.6042    2.6458    0.0000 C   0  0  0  0  0  0           0  0  0
    6.6042    1.4208    0.0000 O   0  0  0  0  0  0           0  0  0
   -2.2625   -0.2917    0.0000 C   0  0  0  0  0  0           0  0  0
   -3.6583    0.0000    0.0000 C   0  0  0  0  0  0           0  0  0
   -3.8333   -0.8042    0.0000 C   0  0  0  0  0  0           0  0  0
   -2.4333   -1.1000    0.0000 C   0  0  0  0  0  0           0  0  0
   -3.2208   -1.3542    0.0000 C   0  0  0  0  0  0           0  0  0
    4.4667    2.6583    0.0000 C   0  0  0  0  0  0           0  0  0
    5.1792    1.4208    0.0000 C   0  0  0  0  0  0           0  0  0
    5.8917    2.6625    0.0000 C   0  0  0  0  0  0           0  0  0
    3.7542    2.2375    0.0000 C   0  0  0  0  0  0           0  0  0
    1.6167    0.1750    0.0000 C   0  0  0  0  0  0           0  0  0
    3.0375    1.0083    0.0000 C   0  0  0  0  0  0           0  0  0
    3.0375    2.6500    0.0000 C   0  0  0  0  0  0           0  0  0
   -3.6083    3.8583    0.0000 C   0  0  0  0  0  0           0  0  0
   -2.7083    3.8083    0.0000 C   0  0  0  0  0  0           0  0  0
   -4.0208    3.2333    0.0000 C   0  0  0  0  0  0           0  0  0
    6.6042    2.2458    0.0000 C   0  0  0  0  0  0           0  0  0
    5.8917    1.0083    0.0000 C   0  0  0  0  0  0           0  0  0
   -3.3875   -2.1667    0.0000 C   0  0  0  0  0  0           0  0  0
    2.3292   -0.2292    0.0000 C   0  0  0  0  0  0           0  0  0
    3.0417    0.1833    0.0000 C   0  0  0  0  0  0           0  0  0
  2  1  1  0     0  0
  3  2  1  0     0  0
  4  1  2  0     0  0
  5  4  1  0     0  0
  6  1  1  0     0  0
  7  6  1  0     0  0
  8  9  1  0     0  0
  9  7  1  0     0  0
 10  8  2  0     0  0
 11 10  1  0     0  0
 12  2  1  0     0  0
 13  5  1  0     0  0
 14 25  1  0     0  0
 15  7  2  0     0  0
 16 18  1  0     0  0
 17  8  1  0     0  0
 18 17  2  0     0  0
 19 35  1  0     0  0
 20 12  1  0     0  0
 21 12  2  0     0  0
 22 21  1  0     0  0
 23 20  2  0     0  0
 24 22  2  0     0  0
 25 28  1  0     0  0
 26 14  1  0     0  0
 27 14  1  0     0  0
 28 31  1  0     0  0
 29 10  1  0     0  0
 30 11  1  0     0  0
 31 16  1  0     0  0
 32 13  1  0     0  0
 33 13  1  0     0  0
 34 13  1  0     0  0
 35 27  1  0     0  0
 36 26  1  0     0  0
 37 24  1  0     0  0
 38 29  2  0     0  0
 39 38  1  0     0  0
  3  5  2  0     0  0
 23 24  1  0     0  0
 16 11  2  0     0  0
 30 39  2  0     0  0
 19 36  1  0     0  0
M  END