
  SciTegic06051313552D

 32 34  0  0  0  0            999 V2000
    7.4344   -5.9395    0.0000 N   0  0
    7.6479   -5.1427    0.0000 C   0  0
    6.9560   -4.6932    0.0000 N   0  0
    6.3149   -5.2125    0.0000 C   0  0
    5.5000   -5.0835    0.0000 N   0  0
    4.9808   -5.7246    0.0000 C   0  0
    5.2764   -6.4948    0.0000 N   0  0
    6.0913   -6.6239    0.0000 C   0  0
    6.6105   -5.9828    0.0000 C   0  0
    4.1659   -5.5955    0.0000 O   0  0
    6.3870   -7.3941    0.0000 O   0  0
    8.4181   -4.8469    0.0000 O   0  0
    6.9128   -3.8694    0.0000 C   0  0
    7.6047   -3.4201    0.0000 C   0  0  1  0  0  0
    8.3398   -3.7946    0.0000 O   0  0
    7.6047   -2.5951    0.0000 C   0  0  2  0  0  0
    8.3193   -2.1826    0.0000 O   0  0
    6.8903   -2.1825    0.0000 C   0  0  2  0  0  0
    6.8903   -1.3575    0.0000 O   0  0
    6.1758   -2.5951    0.0000 C   0  0
    5.4613   -2.1825    0.0000 O   0  0
    4.7468   -2.5951    0.0000 C   0  0  2  0  0  0
    4.7468   -3.4201    0.0000 C   0  0  2  0  0  0
    5.4613   -3.8326    0.0000 O   0  0
    4.0322   -3.8326    0.0000 C   0  0  1  0  0  0
    4.0322   -4.6576    0.0000 O   0  0
    3.3178   -3.4201    0.0000 C   0  0  1  0  0  0
    2.6033   -3.8326    0.0000 O   0  0
    3.3178   -2.5951    0.0000 C   0  0  2  0  0  0
    4.0322   -2.1825    0.0000 O   0  0
    2.6033   -2.1825    0.0000 C   0  0
    2.6033   -1.3575    0.0000 O   0  0
  1  2  1  0
  2  3  1  0
  3  4  1  0
  4  5  1  0
  5  6  1  0
  6  7  1  0
  7  8  1  0
  8  9  1  0
  1  9  1  0
  4  9  2  0
  6 10  2  0
  8 11  2  0
  2 12  2  0
 13 14  1  0
 14 15  1  6
 14 16  1  0
 16 17  1  1
 16 18  1  0
 18 19  1  1
 18 20  1  0
 20 21  1  0
 22 23  1  0
 23 24  1  6
 23 25  1  0
 25 26  1  1
 25 27  1  0
 27 28  1  1
 27 29  1  0
 29 30  1  0
 29 31  1  1
 31 32  1  0
 22 30  1  0
 22 21  1  6
  3 13  1  0
M  END