
  SciTegic10041313282D

 39 43  0  0  0  0            999 V2000
   -5.9734    0.8892    0.0000 C   0  0
   -5.9748    0.0616    0.0000 C   0  0
   -5.2618   -0.3513    0.0000 C   0  0
   -4.5425    0.0621    0.0000 C   0  0
   -4.5456    0.8932    0.0000 C   0  0
   -5.2638    1.3019    0.0000 C   0  0
   -3.8333    1.3092    0.0000 O   0  0
   -3.8373    2.1341    0.0000 C   0  0
   -3.1249    2.5501    0.0000 C   0  0
   -3.8276   -0.3497    0.0000 N   0  0
   -3.8327   -1.1788    0.0000 C   0  0
   -3.1220   -1.5905    0.0000 N   0  0
   -3.1196    0.0613    0.0000 C   0  0
   -3.1190    0.8862    0.0000 O   0  0
   -2.4043   -0.3550    0.0000 C   0  0
   -2.4087   -1.1805    0.0000 C   0  0
   -1.6971   -1.5952    0.0000 C   0  0
   -0.9807   -1.1855    0.0000 C   0  0
   -0.9803   -0.3569    0.0000 C   0  0
   -1.6925    0.0540    0.0000 C   0  0
   -4.5488   -1.5886    0.0000 C   0  0
   -5.2617   -1.1733    0.0000 C   0  0
   -4.5519   -2.4135    0.0000 N   0  0
   -5.2669   -2.8214    0.0000 C   0  0
   -5.2720   -3.6427    0.0000 C   0  0
   -4.5610   -4.0618    0.0000 N   0  0
   -3.8432   -3.6533    0.0000 C   0  0
   -3.8363   -2.8257    0.0000 C   0  0
   -4.5673   -4.8868    0.0000 C   0  0
   -5.2849   -5.2938    0.0000 O   0  0
   -3.8560   -5.3047    0.0000 C   0  0
   -3.1384   -4.8976    0.0000 O   0  0
   -2.4272   -5.3156    0.0000 C   0  0
   -2.4380   -6.1382    0.0000 C   0  0
   -1.7275   -6.5560    0.0000 C   0  0
   -1.0089   -6.1489    0.0000 C   0  0
   -1.0053   -5.3197    0.0000 C   0  0
   -1.7164   -4.9056    0.0000 C   0  0
   -0.2971   -6.5659    0.0000 Cl  0  0
 18 19  1  0
  4  5  1  0
 19 20  2  0
 20 15  1  0
  4 10  1  0
 11 21  1  0
 10 11  1  0
 21 22  1  0
  2  3  1  0
 21 23  1  0
 23 24  1  0
  5  6  2  0
  6  1  1  0
 10 13  1  0
 11 12  2  0
 12 16  1  0
 23 28  1  0
 24 25  1  0
 25 26  1  0
 26 27  1  0
 27 28  1  0
 15 13  1  0
 26 29  1  0
  1  2  2  0
 29 30  2  0
 13 14  2  0
 29 31  1  0
  5  7  1  0
 31 32  1  0
  3  4  2  0
 32 33  1  0
 15 16  2  0
 33 34  2  0
  7  8  1  0
 34 35  1  0
 16 17  1  0
 35 36  2  0
 36 37  1  0
 17 18  2  0
 37 38  2  0
 38 33  1  0
  8  9  1  0
 36 39  1  0
M  END