
  SciTegic05061116452D

 26 28  0  0  0  0            999 V2000
    8.5527  -13.7325    0.0000 N   0  0
    9.2644  -13.3239    0.0000 C   0  0
    9.2644  -12.4989    0.0000 N   0  0
    8.5527  -12.0825    0.0000 C   0  0
    7.8410  -13.3239    0.0000 C   0  0
    7.8411  -12.4943    0.0000 C   0  0
    7.0521  -12.2379    0.0000 N   0  0
    6.5644  -12.9091    0.0000 C   0  0
    7.0521  -13.5801    0.0000 N   0  0
    6.7971  -14.3647    0.0000 C   0  0
    5.9901  -14.5362    0.0000 C   0  0
    5.7352  -15.3207    0.0000 O   0  0
    5.4382  -13.9231    0.0000 O   0  0
    8.5547  -11.2576    0.0000 N   0  0
    9.9782  -13.7373    0.0000 N   0  0
   10.6932  -13.3256    0.0000 C   0  0
   11.4071  -13.7389    0.0000 C   0  0
   10.6942  -12.5007    0.0000 O   0  0
    9.2705  -10.8457    0.0000 C   0  0
    9.2744  -10.0243    0.0000 C   0  0
    8.5628   -9.6063    0.0000 O   0  0
    7.8455  -10.0158    0.0000 C   0  0
    7.8399  -10.8433    0.0000 C   0  0
   12.1220  -13.3274    0.0000 C   0  0
   12.8360  -13.7407    0.0000 C   0  0
   13.5509  -13.3290    0.0000 C   0  0
  6  4  1  0
 11 13  2  0
  5  1  1  0
  4 14  1  0
  1  2  2  0
  2 15  1  0
  2  3  1  0
 15 16  1  0
  6  7  1  0
 16 17  1  0
  7  8  2  0
 16 18  2  0
 14 19  1  0
  8  9  1  0
  9  5  1  0
  3  4  2  0
  9 10  1  0
  5  6  2  0
 14 23  1  0
 19 20  1  0
 20 21  1  0
 21 22  1  0
 22 23  1  0
 10 11  1  0
 17 24  1  0
 24 25  1  0
 11 12  1  0
 25 26  1  0
M  END