
          08180812472D 1   1.00000     0.00000     0

 28 31  0     1  0            999 V2000
   12.7773  -16.8756    0.0000 C   0  0  3  0  0  0           0  0  0
   12.7773  -16.0506    0.0000 C   0  0  0  0  0  0           0  0  0
   13.4921  -15.6358    0.0000 C   0  0  0  0  0  0           0  0  0
   13.4921  -17.2858    0.0000 C   0  0  0  0  0  0           0  0  0
   14.2067  -16.8756    0.0000 C   0  0  2  0  0  0           0  0  0
   14.9260  -17.2858    0.0000 C   0  0  0  0  0  0           0  0  0
   15.6407  -16.8756    0.0000 C   0  0  0  0  0  0           0  0  0
   15.6407  -16.0506    0.0000 C   0  0  1  0  0  0           0  0  0
   16.3554  -15.6358    0.0000 C   0  0  2  0  0  0           0  0  0
   17.1408  -15.8943    0.0000 C   0  0  0  0  0  0           0  0  0
   17.6209  -15.2256    0.0000 C   0  0  0  0  0  0           0  0  0
   17.1408  -14.5571    0.0000 C   0  0  1  0  0  0           0  0  0
   16.3554  -14.8109    0.0000 C   0  0  2  0  0  0           0  0  0
   16.3554  -13.9859    0.0000 C   0  0  0  0  0  0           0  0  0
   15.6407  -14.4007    0.0000 C   0  0  0  0  0  0           0  0  0
   14.9260  -14.8109    0.0000 C   0  0  0  0  0  0           0  0  0
   14.9260  -15.6358    0.0000 C   0  0  2  0  0  0           0  0  0
   14.2067  -16.0506    0.0000 C   0  0  1  0  0  0           0  0  0
   14.2067  -15.2256    0.0000 C   0  0  0  0  0  0           0  0  0
   17.8878  -14.2116    0.0000 O   0  0  0  0  0  0           0  0  0
   12.5011  -17.6500    0.0000 F   0  0  0  0  0  0           0  0  0
   11.9686  -16.7339    0.0000 F   0  0  0  0  0  0           0  0  0
   16.9377  -13.7590    0.0000 C   0  0  0  0  0  0           0  0  0
   16.7390  -12.9564    0.0000 C   0  0  0  0  0  0           0  0  0
   14.2067  -17.7005    0.0000 H   0  0  0  0  0  0           0  0  0
   14.9260  -16.4608    0.0000 H   0  0  0  0  0  0           0  0  0
   15.6407  -15.2256    0.0000 H   0  0  0  0  0  0           0  0  0
   16.3554  -16.4608    0.0000 H   0  0  0  0  0  0           0  0  0
  1  2  1  0     0  0
  2  3  1  0     0  0
  1  4  1  0     0  0
  4  5  1  0     0  0
  5  6  1  0     0  0
  6  7  1  0     0  0
  7  8  1  0     0  0
  8  9  1  0     0  0
  9 10  1  0     0  0
 10 11  1  0     0  0
 11 12  1  0     0  0
 12 13  1  0     0  0
  9 13  1  0     0  0
 13 14  1  1     0  0
 13 15  1  0     0  0
 15 16  1  0     0  0
 16 17  1  0     0  0
  8 17  1  0     0  0
 17 18  1  0     0  0
  3 18  1  0     0  0
  5 18  1  0     0  0
 18 19  1  1     0  0
 12 20  1  1     0  0
  1 21  1  0     0  0
  1 22  1  0     0  0
 23 24  3  0     0  0
 12 23  1  0     0  0
  5 25  1  6     0  0
 17 26  1  6     0  0
  8 27  1  1     0  0
  9 28  1  6     0  0
M  END