
          11280715302D 1   1.00000     0.00000     0

 39 43  0     0  0            999 V2000
   -2.0208   -0.0917    0.0000 C   0  0  0  0  0  0           0  0  0
   -2.6833   -0.5875    0.0000 N   0  0  3  0  0  0           0  0  0
   -3.3500   -0.1042    0.0000 N   0  0  0  0  0  0           0  0  0
   -2.2750    0.6833    0.0000 C   0  0  0  0  0  0           0  0  0
   -3.1000    0.6833    0.0000 C   0  0  0  0  0  0           0  0  0
   -1.2333   -0.3500    0.0000 N   0  0  0  0  0  0           0  0  0
   -0.6208    0.2083    0.0000 C   0  0  0  0  0  0           0  0  0
    0.7750    0.5083    0.0000 C   0  0  0  0  0  0           0  0  0
    0.1667   -0.0417    0.0000 N   0  0  0  0  0  0           0  0  0
    1.5542    0.2583    0.0000 C   0  0  0  0  0  0           0  0  0
   -3.5875    1.3458    0.0000 C   0  0  3  0  0  0           0  0  0
    2.1750    0.8083    0.0000 C   0  0  0  0  0  0           0  0  0
    4.7917    2.2125    0.0000 N   0  0  3  0  0  0           0  0  0
   -2.6833   -1.4125    0.0000 C   0  0  0  0  0  0           0  0  0
    2.0000    1.6125    0.0000 C   0  0  0  0  0  0           0  0  0
   -0.7958    1.0083    0.0000 O   0  0  0  0  0  0           0  0  0
    0.6000    1.3083    0.0000 C   0  0  0  0  0  0           0  0  0
    1.2042    1.8625    0.0000 C   0  0  0  0  0  0           0  0  0
    6.3542    1.6958    0.0000 O   0  0  0  0  0  0           0  0  0
    2.6125    2.1708    0.0000 O   0  0  0  0  0  0           0  0  0
   -3.2583    2.1000    0.0000 C   0  0  0  0  0  0           0  0  0
    4.0042    2.4708    0.0000 C   0  0  0  0  0  0           0  0  0
    3.3917    1.9125    0.0000 C   0  0  0  0  0  0           0  0  0
   -4.4083    1.2583    0.0000 C   0  0  0  0  0  0           0  0  0
   -4.0083    2.0625    0.0000 C   0  0  0  0  0  0           0  0  0
   -2.4375    2.1958    0.0000 O   0  0  0  0  0  0           0  0  0
    5.4000    2.7708    0.0000 C   0  0  0  0  0  0           0  0  0
    4.9625    1.4000    0.0000 C   0  0  0  0  0  0           0  0  0
    1.7292   -0.5542    0.0000 C   0  0  0  0  0  0           0  0  0
    2.9625    0.5625    0.0000 C   0  0  0  0  0  0           0  0  0
    5.7417    1.1458    0.0000 C   0  0  0  0  0  0           0  0  0
    6.1875    2.5083    0.0000 C   0  0  0  0  0  0           0  0  0
   -3.3958   -1.8292    0.0000 C   0  0  0  0  0  0           0  0  0
   -1.9708   -1.8167    0.0000 C   0  0  0  0  0  0           0  0  0
    3.1375   -0.2500    0.0000 C   0  0  0  0  0  0           0  0  0
    2.5167   -0.8042    0.0000 C   0  0  0  0  0  0           0  0  0
   -3.3833   -2.6542    0.0000 C   0  0  0  0  0  0           0  0  0
   -1.9708   -2.6417    0.0000 C   0  0  0  0  0  0           0  0  0
   -2.6708   -3.0542    0.0000 C   0  0  0  0  0  0           0  0  0
  2  1  1  0     0  0
  3  2  1  0     0  0
  4  1  2  0     0  0
  5  4  1  0     0  0
  6  1  1  0     0  0
  7  6  1  0     0  0
  8  9  1  0     0  0
  9  7  1  0     0  0
 10  8  2  0     0  0
 11  5  1  0     0  0
 12 10  1  0     0  0
 13 22  1  0     0  0
 14  2  1  0     0  0
 15 18  1  0     0  0
 16  7  2  0     0  0
 17  8  1  0     0  0
 18 17  2  0     0  0
 19 31  1  0     0  0
 20 15  1  0     0  0
 21 11  1  0     0  0
 22 23  1  0     0  0
 23 20  1  0     0  0
 24 11  1  0     0  0
 25 11  1  0     0  0
 26 21  1  0     0  0
 27 13  1  0     0  0
 28 13  1  0     0  0
 29 10  1  0     0  0
 30 12  1  0     0  0
 31 28  1  0     0  0
 32 27  1  0     0  0
 33 14  2  0     0  0
 34 14  1  0     0  0
 35 36  1  0     0  0
 36 29  2  0     0  0
 37 33  1  0     0  0
 38 34  2  0     0  0
 39 38  1  0     0  0
  5  3  2  0     0  0
 37 39  2  0     0  0
 12 15  2  0     0  0
 35 30  2  0     0  0
 32 19  1  0     0  0
M  END