
  SciTegic02271514512D

 24 26  0  0  0  0            999 V2000
    1.1350  -10.7844    0.0000 C   0  0
    1.1350  -11.6016    0.0000 C   0  0
    1.8403  -12.0061    0.0000 C   0  0
    2.5455  -11.6016    0.0000 C   0  0
    2.5455  -10.7844    0.0000 C   0  0
    1.8403  -10.3717    0.0000 C   0  0
    0.4288  -12.0117    0.0000 C   0  0
   -0.2815  -11.6025    0.0000 C   0  0
   -0.9864  -12.0114    0.0000 C   0  0
   -0.9872  -12.8295    0.0000 C   0  0
   -0.2724  -13.2369    0.0000 C   0  0
    0.4313  -12.8256    0.0000 C   0  0
    1.8403   -9.5545    0.0000 O   0  0
    3.2544  -10.3779    0.0000 S   0  0
    3.9610  -10.7886    0.0000 C   0  0
    3.2527  -12.0113    0.0000 O   0  0
    3.9570  -11.6068    0.0000 C   0  0
    4.6627  -12.0174    0.0000 C   0  0
    5.3725  -11.6108    0.0000 C   0  0
    5.3723  -10.7894    0.0000 C   0  0
    4.6661  -10.3825    0.0000 C   0  0
    4.6661   -9.5653    0.0000 Cl  0  0
   -0.2812  -10.7853    0.0000 Cl  0  0
    1.1408  -13.2312    0.0000 Cl  0  0
  1  2  1  0
  1  6  1  0
  2  3  1  0
  3  4  1  0
  4  5  1  0
  5  6  2  0
  7  8  2  0
  8  9  1  0
  9 10  2  0
 10 11  1  0
 11 12  2  0
 12  7  1  0
  2  7  1  0
  6 13  1  0
  5 14  1  0
 14 15  1  0
  4 16  2  0
 15 17  2  0
 17 18  1  0
 18 19  2  0
 19 20  1  0
 20 21  2  0
 21 15  1  0
 21 22  1  0
  8 23  1  0
 12 24  1  0
M  END