
          11280714452D 1   1.00000     0.00000     0

 25 27  0     0  0            999 V2000
    3.9750   -1.2167    0.0000 N   0  0  0  0  0  0           0  0  0
    3.8667   -1.8042    0.0000 C   0  0  0  0  0  0           0  0  0
    4.4000   -2.0917    0.0000 N   0  0  0  0  0  0           0  0  0
    4.5667   -1.1417    0.0000 C   0  0  0  0  0  0           0  0  0
    4.8292   -1.6792    0.0000 C   0  0  0  0  0  0           0  0  0
    2.3167   -2.1417    0.0000 C   0  0  3  0  0  0           0  0  0
    2.8292   -1.8292    0.0000 C   0  0  0  0  0  0           0  0  0
    3.3625   -2.1167    0.0000 C   0  0  0  0  0  0           0  0  0
    1.7875   -1.8542    0.0000 C   0  0  0  0  0  0           0  0  0
    2.3417   -2.7500    0.0000 C   0  0  0  0  0  0           0  0  0
    4.8500   -0.6042    0.0000 C   0  0  0  0  0  0           0  0  0
    4.8167    0.4333    0.0000 N   0  0  0  0  0  0           0  0  0
    4.5375   -0.0917    0.0000 C   0  0  0  0  0  0           0  0  0
    1.8375   -3.0625    0.0000 C   0  0  0  0  0  0           0  0  0
    2.8667   -3.0375    0.0000 C   0  0  0  0  0  0           0  0  0
    1.2625   -2.1625    0.0000 C   0  0  0  0  0  0           0  0  0
    1.7875   -1.2667    0.0000 C   0  0  0  0  0  0           0  0  0
    4.5000    0.9333    0.0000 C   0  0  0  0  0  0           0  0  0
    4.7667    1.4625    0.0000 C   0  0  0  0  0  0           0  0  0
    2.8875   -3.6292    0.0000 C   0  0  0  0  0  0           0  0  0
    1.2625   -0.9625    0.0000 C   0  0  0  0  0  0           0  0  0
    0.7417   -1.8625    0.0000 C   0  0  0  0  0  0           0  0  0
    1.8500   -3.6667    0.0000 C   0  0  0  0  0  0           0  0  0
    0.7417   -1.2625    0.0000 C   0  0  0  0  0  0           0  0  0
    2.3750   -3.9417    0.0000 C   0  0  0  0  0  0           0  0  0
  2  1  2  0     0  0
  3  2  1  0     0  0
  4  1  1  0     0  0
  5  4  2  0     0  0
  6  7  1  0     0  0
  7  8  1  0     0  0
  8  2  1  0     0  0
  9  6  1  0     0  0
 10  6  1  0     0  0
 11  4  1  0     0  0
 12 13  1  0     0  0
 13 11  1  0     0  0
 14 10  2  0     0  0
 15 10  1  0     0  0
 16  9  1  0     0  0
 17  9  2  0     0  0
 18 12  1  0     0  0
 19 18  1  0     0  0
 20 15  2  0     0  0
 21 17  1  0     0  0
 22 16  2  0     0  0
 23 14  1  0     0  0
 24 21  2  0     0  0
 25 20  1  0     0  0
  5  3  1  0     0  0
 25 23  2  0     0  0
 22 24  1  0     0  0
M  END