
  SciTegic12231509382D

 34 37  0  0  0  0            999 V2000
    3.8148   -2.3815    0.0000 C   0  0
    3.8137   -3.2097    0.0000 C   0  0
    4.5292   -3.6230    0.0000 C   0  0
    4.5274   -1.9683    0.0000 C   0  0
    5.2436   -2.3778    0.0000 C   0  0
    5.2444   -3.2055    0.0000 C   0  0
    5.9603   -3.6169    0.0000 C   0  0
    6.6761   -3.2018    0.0000 C   0  0
    6.6714   -2.3708    0.0000 C   0  0
    5.9546   -1.9634    0.0000 C   0  0
    4.5250   -1.1425    0.0000 O   0  0
    3.0982   -3.6221    0.0000 S   0  0
    2.3833   -3.2086    0.0000 O   0  0
    2.6777   -4.3335    0.0000 O   0  0
    3.5036   -4.3335    0.0000 O   0  0
    7.3929   -3.6119    0.0000 N   0  0
    8.1065   -3.1962    0.0000 C   0  0
    8.8232   -3.6063    0.0000 N   0  0
    8.1032   -2.3703    0.0000 O   0  0
    9.5368   -3.1907    0.0000 C   0  0
   10.2484   -3.6037    0.0000 C   0  0
   10.2369   -1.9520    0.0000 C   0  0
    9.5268   -2.3693    0.0000 C   0  0
   10.9588   -2.3618    0.0000 C   0  0
   10.9584   -3.1847    0.0000 C   0  0
   11.6696   -3.5947    0.0000 C   0  0
   12.3816   -3.1830    0.0000 C   0  0
   12.3781   -2.3570    0.0000 C   0  0
   11.6662   -1.9508    0.0000 C   0  0
   11.6630   -1.1249    0.0000 O   0  0
   13.0979   -3.5941    0.0000 S   0  0
   13.8120   -3.1793    0.0000 O   0  0
   12.6794   -4.3043    0.0000 O   0  0
   13.5052   -4.3043    0.0000 O   0  0
  1  2  2  0
  2  3  1  0
  3  6  2  0
  5  4  2  0
  4  1  1  0
  5  6  1  0
  6  7  1  0
  7  8  2  0
  8  9  1  0
  9 10  2  0
 10  5  1  0
  4 11  1  0
  2 12  1  0
 12 13  1  0
 12 14  2  0
 12 15  2  0
  8 16  1  0
 16 17  1  0
 17 18  1  0
 17 19  2  0
 18 20  1  0
 20 21  2  0
 21 25  1  0
 24 22  1  0
 22 23  2  0
 23 20  1  0
 24 25  1  0
 25 26  2  0
 26 27  1  0
 27 28  2  0
 28 29  1  0
 29 24  2  0
 29 30  1  0
 27 31  1  0
 31 32  1  0
 31 33  2  0
 31 34  2  0
M  END