
  SciTegic05061116452D

 27 31  0  0  0  0            999 V2000
   -5.2015   -9.5474    0.0000 C   0  0
   -5.2015  -10.3787    0.0000 C   0  0
   -4.4924  -10.7904    0.0000 C   0  0
   -3.7841  -10.3815    0.0000 C   0  0
   -3.0616  -10.8011    0.0000 C   0  0
   -2.3490  -10.3873    0.0000 C   0  0
   -2.3490   -9.5571    0.0000 C   0  0
   -3.7841   -9.6028    0.0000 C   0  0
   -3.0734   -9.1406    0.0000 C   0  0
   -4.4245   -9.1475    0.0000 C   0  0
   -4.1442   -8.3389    0.0000 C   0  0
   -3.3135   -8.3389    0.0000 C   0  0
   -3.0353   -7.5755    0.0000 C   0  0
   -3.6714   -7.0652    0.0000 C   0  0
   -4.3707   -7.5254    0.0000 N   0  0
   -2.2471   -7.3458    0.0000 C   0  0
   -1.4589   -7.1161    0.0000 N   0  0
   -3.6714   -6.2449    0.0000 O   0  0
   -2.3471  -12.0386    0.0000 C   0  0
   -2.3486  -12.8636    0.0000 C   0  0
   -1.6350  -13.2760    0.0000 C   0  0
   -0.9195  -12.8634    0.0000 C   0  0
   -0.9222  -12.0342    0.0000 C   0  0
   -1.6364  -11.6255    0.0000 C   0  0
   -0.2045  -13.2750    0.0000 O   0  0
   -0.2034  -14.1000    0.0000 C   0  0
   -3.0616  -11.6261    0.0000 S   0  0
  6  7  1  0
  7  9  2  0
  8  9  1  0
  9 12  1  0
 11 10  1  0
 11 12  1  0
 12 13  2  0
 13 14  1  0
 14 15  1  0
 15 11  2  0
 16 17  3  0
 13 16  1  0
 14 18  2  0
  5 27  1  0
  1  2  2  0
 27 19  1  0
  2  3  1  0
 19 20  2  0
  3  4  2  0
 20 21  1  0
  8 10  2  0
 21 22  2  0
 10  1  1  0
 22 23  1  0
  8  4  1  0
 23 24  2  0
 24 19  1  0
  4  5  1  0
 22 25  1  0
  5  6  2  0
 25 26  1  0
M  END