
  SciTegic06181315362D

 33 35  0  0  0  0            999 V2000
   22.6691  -13.6540    0.0000 C   0  0
   22.6680  -14.4813    0.0000 C   0  0
   23.3828  -14.8942    0.0000 C   0  0
   24.0993  -14.4809    0.0000 C   0  0
   24.0964  -13.6504    0.0000 C   0  0
   23.3810  -13.2412    0.0000 C   0  0
   21.9546  -13.2417    0.0000 O   0  0
   21.2402  -13.6543    0.0000 C   0  0
   21.2404  -14.4793    0.0000 C   0  0
   20.5261  -14.8920    0.0000 O   0  0
   24.8143  -14.8922    0.0000 O   0  0
   25.5282  -14.4786    0.0000 C   0  0
   26.2433  -14.8900    0.0000 C   0  0
   26.9571  -14.4764    0.0000 C   0  0
   26.2445  -15.7150    0.0000 O   0  0
   27.6722  -14.8878    0.0000 N   0  0
   28.3860  -14.4741    0.0000 C   0  0
   29.1011  -14.8855    0.0000 C   0  0
   29.8150  -14.4719    0.0000 N   0  0
   30.5301  -14.8833    0.0000 C   0  0
   31.2439  -14.4696    0.0000 N   0  0
   30.5314  -15.7082    0.0000 O   0  0
   31.9590  -14.8810    0.0000 C   0  0
   31.9565  -15.7051    0.0000 C   0  0
   32.6708  -16.1164    0.0000 C   0  0
   33.3856  -15.7027    0.0000 C   0  0
   33.3816  -14.8734    0.0000 C   0  0
   32.6668  -14.4659    0.0000 C   0  0
   19.8114  -14.4801    0.0000 C   0  0
   19.8223  -13.6543    0.0000 C   0  0
   19.0480  -13.3892    0.0000 C   0  0
   18.5534  -14.0497    0.0000 C   0  0
   19.0246  -14.7233    0.0000 C   0  0
  1  2  2  0
  2  3  1  0
  3  4  2  0
  4  5  1  0
  5  6  2  0
  6  1  1  0
  1  7  1  0
  7  8  1  0
  8  9  1  0
  9 10  1  0
  4 11  1  0
 11 12  1  0
 12 13  1  0
 13 14  1  0
 13 15  1  0
 14 16  1  0
 16 17  1  0
 17 18  1  0
 18 19  1  0
 19 20  1  0
 20 21  1  0
 20 22  2  0
 21 23  1  0
 23 24  2  0
 24 25  1  0
 25 26  2  0
 26 27  1  0
 27 28  2  0
 28 23  1  0
 10 29  1  0
 29 30  1  0
 30 31  1  0
 31 32  1  0
 32 33  1  0
 33 29  1  0
M  END