
  SciTegic01111613442D

 24 26  0  0  0  0            999 V2000
    1.2990   -0.7500    0.0000 C   0  0
    1.2990    0.7500    0.0000 C   0  0
    1.2947   -3.7520    0.0000 N   0  0
   -0.3159   -5.5398    0.0000 N   0  0
    2.5977   -1.5021    0.0000 C   0  0
    1.1523   -5.2324    0.0000 C   0  0
    0.0000    1.5000    0.0000 C   0  0
    0.0000   -1.5000    0.0000 C   0  0
    2.5952   -3.0030    0.0000 C   0  0
    3.8983   -0.7531    0.0000 O   0  0
   -1.0619   -4.2384    0.0000 C   0  0
   -0.0548   -3.1268    0.0000 C   0  0
   -1.2990    0.7500    0.0000 C   0  0
    2.3383    1.3500    0.0000 Cl  0  0
   -1.2990   -0.7500    0.0000 C   0  0
    3.9008    0.7478    0.0000 C   0  0
    7.8040    2.9889    0.0000 C   0  0
    5.2013    1.4968    0.0000 C   0  0
   -2.3383    1.3500    0.0000 Cl  0  0
    8.8451    3.5857    0.0000 Cl  0  0
    6.5073    3.7429    0.0000 C   0  0
    7.7994    1.4889    0.0000 C   0  0
    5.2060    2.9969    0.0000 C   0  0
    6.4981    0.7429    0.0000 C   0  0
  2  1  1  0
  3  9  1  0
  4  6  2  0
  5  1  1  0
  6  3  1  0
  7  2  2  0
  8  1  2  0
  9  5  1  0
 10  5  1  0
 11 12  2  0
 12  3  1  0
 13 15  2  0
 14  2  1  0
 15  8  1  0
 16 10  1  0
 17 22  2  0
 18 16  1  0
 19 13  1  0
 20 17  1  0
 21 23  2  0
 22 24  1  0
 23 18  1  0
 24 18  2  0
 13  7  1  0
  4 11  1  0
 17 21  1  0
M  END