
  CDK    9/15/10,16:21

 65 73  0  0  0  0  0  0  0  0999 V2000
    5.3792   -1.1208    0.0000 C   0  0  0  0  0  0  0  0  0  0  0  0
    6.0500   -1.3625    0.0000 C   0  0  0  0  0  0  0  0  0  0  0  0
    4.8333   -1.5750    0.0000 C   0  0  0  0  0  0  0  0  0  0  0  0
    6.6792   -1.0250    0.0000 N   0  0  0  0  0  0  0  0  0  0  0  0
    4.9625   -2.2750    0.0000 C   0  0  0  0  0  0  0  0  0  0  0  0
    5.3750   -0.4083    0.0000 S   0  0  0  0  0  0  0  0  0  0  0  0
    2.9625   -1.5417    0.0000 C   0  0  0  0  0  0  0  0  0  0  0  0
    6.1708   -2.0583    0.0000 C   0  0  0  0  0  0  0  0  0  0  0  0
    2.8375   -0.8417    0.0000 S   0  0  0  0  0  0  0  0  0  0  0  0
    2.4167   -1.9958    0.0000 C   0  0  0  0  0  0  0  0  0  0  0  0
    3.6250   -1.7875    0.0000 C   0  0  0  0  0  0  0  0  0  0  0  0
    4.4125   -2.7292    0.0000 C   0  0  0  0  0  0  0  0  0  0  0  0
    1.4792   -6.4042    0.0000 C   0  0  0  0  0  0  0  0  0  0  0  0
    3.7500   -2.4833    0.0000 C   0  0  0  0  0  0  0  0  0  0  0  0
    2.0250   -5.9458    0.0000 C   0  0  0  0  0  0  0  0  0  0  0  0
    4.1708   -1.3292    0.0000 O   0  0  0  0  0  0  0  0  0  0  0  0
    2.5417   -2.6958    0.0000 C   0  0  0  0  0  0  0  0  0  0  0  0
    5.6292   -2.5167    0.0000 C   0  0  0  0  0  0  0  0  0  0  0  0
    1.7167   -1.9000    0.0000 N   0  0  0  0  0  0  0  0  0  0  0  0
    3.0417   -6.7292    0.0000 N   0  0  0  0  0  0  0  0  0  0  0  0
    2.7208   -6.0958    0.0000 C   0  0  0  0  0  0  0  0  0  0  0  0
    1.4958   -7.1208    0.0000 N   0  0  0  0  0  0  0  0  0  0  0  0
    6.8708   -2.1583    0.0000 C   0  0  0  0  0  0  0  0  0  0  0  0
    1.9125   -3.0292    0.0000 C   0  0  0  0  0  0  0  0  0  0  0  0
    7.1833   -1.5208    0.0000 C   0  0  0  0  0  0  0  0  0  0  0  0
    3.2042   -2.9375    0.0000 C   0  0  0  0  0  0  0  0  0  0  0  0
    0.8750   -6.0333    0.0000 C   0  0  0  0  0  0  0  0  0  0  0  0
    2.7417   -7.3750    0.0000 C   0  0  0  0  0  0  0  0  0  0  0  0
    1.4042   -2.5250    0.0000 C   0  0  0  0  0  0  0  0  0  0  0  0
    5.1458   -5.4375    0.0000 C   0  0  0  0  0  0  0  0  0  0  0  0
    5.9458   -0.3917    0.0000 O   0  0  0  0  0  0  0  0  0  0  0  0
    5.3292    0.4417    0.0000 O   0  0  0  0  0  0  0  0  0  0  0  0
    3.5500   -0.9042    0.0000 O   0  0  0  0  0  0  0  0  0  0  0  0
    2.0625   -7.5417    0.0000 C   0  0  0  0  0  0  0  0  0  0  0  0
    4.5333   -3.4333    0.0000 C   0  0  0  0  0  0  0  0  0  0  0  0
    4.6292   -0.3917    0.0000 O   0  0  0  0  0  0  0  0  0  0  0  0
    3.1958   -5.5583    0.0000 C   0  0  0  0  0  0  0  0  0  0  0  0
    2.1708   -0.5958    0.0000 O   0  0  0  0  0  0  0  0  0  0  0  0
    1.8000   -5.2750    0.0000 C   0  0  0  0  0  0  0  0  0  0  0  0
    4.7708   -4.8333    0.0000 C   0  0  0  0  0  0  0  0  0  0  0  0
    0.2500   -6.3625    0.0000 C   0  0  0  0  0  0  0  0  0  0  0  0
    3.3875   -0.3792    0.0000 O   0  0  0  0  0  0  0  0  0  0  0  0
    3.1917   -7.9417    0.0000 O   0  0  0  0  0  0  0  0  0  0  0  0
    5.8583   -5.4125    0.0000 O   0  0  0  0  0  0  0  0  0  0  0  0
    5.2083   -3.6792    0.0000 C   0  0  0  0  0  0  0  0  0  0  0  0
    3.9875   -3.8833    0.0000 C   0  0  0  0  0  0  0  0  0  0  0  0
    4.1125   -4.5875    0.0000 C   0  0  0  0  0  0  0  0  0  0  0  0
    5.3208   -4.3833    0.0000 C   0  0  0  0  0  0  0  0  0  0  0  0
    4.8125   -6.0625    0.0000 N   0  0  0  0  0  0  0  0  0  0  0  0
    2.2667   -4.7375    0.0000 C   0  0  0  0  0  0  0  0  0  0  0  0
    3.7542   -6.7125    0.0000 C   0  0  0  0  0  0  0  0  0  0  0  0
    2.9750   -4.8958    0.0000 C   0  0  0  0  0  0  0  0  0  0  0  0
    0.2292   -7.0792    0.0000 F   0  0  0  0  0  0  0  0  0  0  0  0
    6.4500   -2.7417    0.0000 C   0  0  0  0  0  0  0  0  0  0  0  0
    7.4542   -2.5750    0.0000 C   0  0  0  0  0  0  0  0  0  0  0  0
    2.4458   -3.4958    0.0000 C   0  0  0  0  0  0  0  0  0  0  0  0
    1.4208   -3.5292    0.0000 C   0  0  0  0  0  0  0  0  0  0  0  0
    2.0417   -4.0667    0.0000 Cl  0  0  0  0  0  0  0  0  0  0  0  0
    4.0958   -6.0875    0.0000 C   0  0  0  0  0  0  0  0  0  0  0  0
    0.8917   -5.3083    0.0000 C   0  0  0  0  0  0  0  0  0  0  0  0
    7.8875   -1.3917    0.0000 C   0  0  0  0  0  0  0  0  0  0  0  0
    0.7000   -2.6333    0.0000 C   0  0  0  0  0  0  0  0  0  0  0  0
   -0.3667   -5.9875    0.0000 C   0  0  0  0  0  0  0  0  0  0  0  0
    0.2875   -4.9417    0.0000 C   0  0  0  0  0  0  0  0  0  0  0  0
   -0.3417   -5.2750    0.0000 C   0  0  0  0  0  0  0  0  0  0  0  0
  2  1  1  0  0  0  0 
  3  1  2  0  0  0  0 
  4  2  2  0  0  0  0 
  5  3  1  0  0  0  0 
  6  1  1  0  0  0  0 
  7 11  2  0  0  0  0 
  8  2  1  0  0  0  0 
  9  7  1  0  0  0  0 
 10  7  1  0  0  0  0 
 11 16  1  0  0  0  0 
 12  5  2  0  0  0  0 
 13 15  1  0  0  0  0 
 14 11  1  0  0  0  0 
 15 21  2  0  0  0  0 
 16  3  1  0  0  0  0 
 17 26  1  0  0  0  0 
 18  5  1  0  0  0  0 
 19 10  1  0  0  0  0 
 20 51  1  0  0  0  0 
 21 20  1  0  0  0  0 
 22 34  1  0  0  0  0 
 23  8  1  0  0  0  0 
 24 17  1  0  0  0  0 
 25  4  1  0  0  0  0 
 26 14  2  0  0  0  0 
 27 13  1  0  0  0  0 
 28 20  1  0  0  0  0 
 29 19  1  0  0  0  0 
 30 40  1  0  0  0  0 
 31  6  2  0  0  0  0 
 32  6  1  0  0  0  0 
 33  9  1  0  0  0  0 
 34 28  1  0  0  0  0 
 35 12  1  0  0  0  0 
 36  6  2  0  0  0  0 
 37 21  1  0  0  0  0 
 38  9  2  0  0  0  0 
 39 15  1  0  0  0  0 
 40 47  2  0  0  0  0 
 41 27  2  0  0  0  0 
 42  9  2  0  0  0  0 
 43 28  2  0  0  0  0 
 44 30  2  0  0  0  0 
 45 35  1  0  0  0  0 
 46 35  2  0  0  0  0 
 47 46  1  0  0  0  0 
 48 45  2  0  0  0  0 
 49 30  1  0  0  0  0 
 50 52  1  0  0  0  0 
 51 59  1  0  0  0  0 
 52 37  2  0  0  0  0 
 53 41  1  0  0  0  0 
 54 23  1  0  0  0  0 
 55 23  1  0  0  0  0 
 56 24  1  0  0  0  0 
 57 24  1  0  0  0  0 
 58 50  1  0  0  0  0 
 59 49  1  0  0  0  0 
 60 27  1  0  0  0  0 
 25 61  1  0  0  0  0 
 29 62  1  0  0  0  0 
 63 41  1  0  0  0  0 
 64 60  2  0  0  0  0 
 65 64  1  0  0  0  0 
  8 18  2  0  0  0  0 
 25 23  1  0  0  0  0 
 12 14  1  0  0  0  0 
 17 10  2  0  0  0  0 
 48 40  1  0  0  0  0 
 24 29  1  0  0  0  0 
 22 13  2  0  0  0  0 
 39 50  2  0  0  0  0 
 63 65  2  0  0  0  0 
M  END