
          11280715052D 1   1.00000     0.00000     0

 21 22  0     0  0            999 V2000
    1.5250   -0.5417    0.0000 S   0  0  3  0  0  0           0  0  0
   -2.7000   -0.4167    0.0000 N   0  0  0  0  0  0           0  0  0
    2.0375   -0.2417    0.0000 C   0  0  0  0  0  0           0  0  0
   -2.6583    0.5500    0.0000 N   0  0  0  0  0  0           0  0  0
   -3.0333    0.0833    0.0000 C   0  0  0  0  0  0           0  0  0
   -2.1208   -0.2625    0.0000 C   0  0  0  0  0  0           0  0  0
    1.2125   -1.2792    0.0000 O   0  0  0  0  0  0           0  0  0
    1.9000   -1.2542    0.0000 O   0  0  0  0  0  0           0  0  0
    0.9917   -0.2625    0.0000 N   0  0  0  0  0  0           0  0  0
   -2.0958    0.3375    0.0000 C   0  0  0  0  0  0           0  0  0
    2.5625   -0.5375    0.0000 C   0  0  0  0  0  0           0  0  0
    2.0292    0.3583    0.0000 C   0  0  0  0  0  0           0  0  0
    3.0667    0.3708    0.0000 C   0  0  0  0  0  0           0  0  0
    2.5417    0.6625    0.0000 C   0  0  0  0  0  0           0  0  0
    3.0750   -0.2292    0.0000 C   0  0  0  0  0  0           0  0  0
    3.5875    0.6750    0.0000 Cl  0  0  0  0  0  0           0  0  0
   -1.6083   -0.5625    0.0000 C   0  0  0  0  0  0           0  0  0
    0.4667   -0.5625    0.0000 C   0  0  0  0  0  0           0  0  0
   -1.0875   -0.2625    0.0000 C   0  0  0  0  0  0           0  0  0
   -0.0458   -0.2625    0.0000 C   0  0  0  0  0  0           0  0  0
   -0.5708   -0.5625    0.0000 C   0  0  0  0  0  0           0  0  0
  2  6  1  0     0  0
  3  1  1  0     0  0
  4 10  1  0     0  0
  5  2  2  0     0  0
  6 17  1  0     0  0
  7  1  2  0     0  0
  8  1  2  0     0  0
  9  1  1  0     0  0
 10  6  2  0     0  0
 11  3  2  0     0  0
 12  3  1  0     0  0
 13 14  1  0     0  0
 14 12  2  0     0  0
 15 11  1  0     0  0
 16 13  1  0     0  0
 17 19  1  0     0  0
 18  9  1  0     0  0
 19 21  1  0     0  0
 20 18  1  0     0  0
 21 20  1  0     0  0
 15 13  2  0     0  0
  4  5  1  0     0  0
M  END