
          11280715372D 1   1.00000     0.00000     0

 32 36  0     0  0            999 V2000
    2.2042   -1.2667    0.0000 C   0  0  0  0  0  0           0  0  0
    2.9167   -1.6875    0.0000 C   0  0  0  0  0  0           0  0  0
    2.9167   -2.5042    0.0000 C   0  0  0  0  0  0           0  0  0
    2.2042   -2.9167    0.0000 O   0  0  0  0  0  0           0  0  0
    1.5000   -1.6875    0.0000 C   0  0  0  0  0  0           0  0  0
    3.6292   -1.2750    0.0000 C   0  0  0  0  0  0           0  0  0
    1.5000   -2.5125    0.0000 C   0  0  3  0  0  0           0  0  0
    4.3417   -1.6792    0.0000 C   0  0  0  0  0  0           0  0  0
    8.6125   -0.0167    0.0000 C   0  0  0  0  0  0           0  0  0
    3.6292   -2.9167    0.0000 C   0  0  0  0  0  0           0  0  0
    5.7667   -1.6792    0.0000 C   0  0  0  0  0  0           0  0  0
    2.2125   -0.4417    0.0000 C   0  0  0  0  0  0           0  0  0
    5.0542   -1.2667    0.0000 C   0  0  0  0  0  0           0  0  0
    4.3417   -2.5042    0.0000 C   0  0  0  0  0  0           0  0  0
    7.9000   -0.4375    0.0000 C   0  0  0  0  0  0           0  0  0
    6.4750   -1.2667    0.0000 C   0  0  0  0  0  0           0  0  0
    8.6042    0.8083    0.0000 O   0  0  0  0  0  0           0  0  0
    5.7667   -2.5042    0.0000 C   0  0  0  0  0  0           0  0  0
    5.0542   -2.9167    0.0000 C   0  0  0  0  0  0           0  0  0
    7.1792   -0.0250    0.0000 C   0  0  0  0  0  0           0  0  0
    7.9042   -1.2625    0.0000 C   0  0  0  0  0  0           0  0  0
    6.4667   -0.4417    0.0000 C   0  0  0  0  0  0           0  0  0
    7.1917   -1.6750    0.0000 C   0  0  0  0  0  0           0  0  0
    2.9250   -0.0292    0.0000 C   0  0  0  0  0  0           0  0  0
    1.5000   -0.0292    0.0000 C   0  0  0  0  0  0           0  0  0
    9.3292   -0.4292    0.0000 O   0  0  0  0  0  0           0  0  0
    1.4917    0.7875    0.0000 C   0  0  0  0  0  0           0  0  0
    2.9250    0.7958    0.0000 C   0  0  0  0  0  0           0  0  0
    2.2125    1.2083    0.0000 C   0  0  0  0  0  0           0  0  0
    1.4917   -3.3375    0.0000 C   0  0  0  0  0  0           0  0  0
    0.7792   -2.1000    0.0000 C   0  0  0  0  0  0           0  0  0
    2.2125    2.0333    0.0000 C   0  0  0  0  0  0           0  0  0
  2  1  1  0     0  0
  3  2  2  0     0  0
  4  7  1  0     0  0
  5  1  2  0     0  0
  6  2  1  0     0  0
  7  5  1  0     0  0
  8  6  2  0     0  0
  9 15  1  0     0  0
 10  3  1  0     0  0
 11 13  2  0     0  0
 12  1  1  0     0  0
 13  8  1  0     0  0
 14  8  1  0     0  0
 15 21  2  0     0  0
 16 11  1  0     0  0
 17  9  2  0     0  0
 18 19  2  0     0  0
 19 14  1  0     0  0
 20 22  2  0     0  0
 21 23  1  0     0  0
 22 16  1  0     0  0
 23 16  2  0     0  0
 24 12  2  0     0  0
 25 12  1  0     0  0
 26  9  1  0     0  0
 27 25  2  0     0  0
 28 24  1  0     0  0
 29 27  1  0     0  0
 30  7  1  0     0  0
 31  7  1  0     0  0
 32 29  1  0     0  0
  3  4  1  0     0  0
 29 28  2  0     0  0
 14 10  2  0     0  0
 11 18  1  0     0  0
 15 20  1  0     0  0
M  END