
  SciTegic01161211252D

 38 43  0  0  0  0            999 V2000
    1.1368   -1.0774    0.0000 N   0  0
    2.5626   -1.0845    0.0000 C   0  0
    1.8516   -0.6674    0.0000 C   0  0
   -0.2365    0.6151    0.0000 C   0  0
    0.4640    0.1793    0.0000 C   0  0
    0.4403   -0.6472    0.0000 C   0  0
    3.2973   -0.7288    0.0000 C   0  0
    3.9977   -1.1605    0.0000 N   0  0
    3.3167    0.0976    0.0000 O   0  0
    3.9697   -1.9834    0.0000 C   0  0
    4.6661   -2.4188    0.0000 C   0  0
    5.3923   -2.0275    0.0000 N   0  0
    5.4220   -1.2001    0.0000 C   0  0
    4.7172   -0.7640    0.0000 C   0  0
    6.0881   -2.4651    0.0000 C   0  0
    6.0600   -3.2926    0.0000 C   0  0
    6.7621   -3.7308    0.0000 C   0  0
    7.4885   -3.3387    0.0000 C   0  0
    7.5127   -2.5078    0.0000 C   0  0
    6.8141   -2.0774    0.0000 C   0  0
    1.1879    0.5742    0.0000 C   0  0
   -0.9604    0.2202    0.0000 C   0  0
   -1.6615    0.6582    0.0000 C   0  0
   -1.7036   -0.9950    0.0000 C   0  0
   -0.9788   -0.6026    0.0000 C   0  0
    1.1326   -1.9043    0.0000 C   0  0
    2.5584   -1.9115    0.0000 C   0  0
    1.8406   -2.3224    0.0000 C   0  0
    1.8361   -3.1437    0.0000 C   0  0
    2.5477   -3.5599    0.0000 C   0  0
    3.2658   -3.1532    0.0000 C   0  0
    3.2719   -2.3257    0.0000 C   0  0
    8.2415   -2.1182    0.0000 F   0  0
   -2.4061   -0.5696    0.0000 C   0  0
   -2.3857    0.2621    0.0000 C   0  0
   -3.1704    0.5385    0.0000 O   0  0
   -3.6757   -0.1224    0.0000 C   0  0
   -3.2034   -0.8070    0.0000 O   0  0
  4  5  1  0
 22 23  2  0
 23 35  1  0
  1  3  1  0
 34 24  1  0
  5  6  1  0
 24 25  2  0
 25 22  1  0
  6  1  1  0
  8 14  1  0
 28 26  1  0
 10 11  1  0
 11 12  1  0
 27 28  1  0
 12 13  1  0
 13 14  1  0
 27  2  1  0
  2  7  1  0
 15 16  2  0
  2  3  1  0
 27 32  1  0
 28 29  1  0
 29 30  1  0
 30 31  1  0
 31 32  1  0
 16 17  1  0
  7  8  1  0
 17 18  2  0
 19 33  1  0
  1 26  1  0
 18 19  1  0
  7  9  2  0
 19 20  2  0
 20 15  1  0
 34 35  2  0
 12 15  1  0
  8 10  1  0
  5 21  1  0
  4 22  1  0
 35 36  1  0
 36 37  1  0
 37 38  1  0
 38 34  1  0
M  END