
  CDK    9/16/09,10:0

 28 30  0  0  0  0  0  0  0  0999 V2000
   16.5907    1.9691    0.0000 N   0  0  0  0  0  0  0  0  0  0  0  0
   16.1862    2.6855    0.0000 C   0  0  0  0  0  0  0  0  0  0  0  0
   15.3649    2.6909    0.0000 C   0  0  0  0  0  0  0  0  0  0  0  0
   14.9455    1.9800    0.0000 C   0  0  0  0  0  0  0  0  0  0  0  0
   15.3538    1.2621    0.0000 C   0  0  0  0  0  0  0  0  0  0  0  0
   16.1813    1.2549    0.0000 C   0  0  0  0  0  0  0  0  0  0  0  0
   17.4156    1.9664    0.0000 C   0  0  0  0  0  0  0  0  0  0  0  0
   17.8258    1.2506    0.0000 C   0  0  0  0  0  0  0  0  0  0  0  0
   17.8305    2.6794    0.0000 C   0  0  0  0  0  0  0  0  0  0  0  0
    8.7108    1.5445    0.0000 C   0  0  0  0  0  0  0  0  0  0  0  0
    8.7095    0.7169    0.0000 C   0  0  0  0  0  0  0  0  0  0  0  0
    9.4225    0.3041    0.0000 C   0  0  0  0  0  0  0  0  0  0  0  0
   10.1417    0.7175    0.0000 C   0  0  0  0  0  0  0  0  0  0  0  0
   10.1387    1.5485    0.0000 C   0  0  0  0  0  0  0  0  0  0  0  0
    9.4205    1.9573    0.0000 C   0  0  0  0  0  0  0  0  0  0  0  0
   10.8510    1.9646    0.0000 C   0  0  0  0  0  0  0  0  0  0  0  0
   11.5675    1.5556    0.0000 C   0  0  0  0  0  0  0  0  0  0  0  0
   11.6604    0.7357    0.0000 C   0  0  0  0  0  0  0  0  0  0  0  0
   12.4682    0.5682    0.0000 N   0  0  0  0  0  0  0  0  0  0  0  0
   12.8767    1.2844    0.0000 C   0  0  0  0  0  0  0  0  0  0  0  0
   12.3220    1.8950    0.0000 N   0  0  0  0  0  0  0  0  0  0  0  0
   12.4900    2.7027    0.0000 C   0  0  0  0  0  0  0  0  0  0  0  0
   13.7017    1.2769    0.0000 O   0  0  0  0  0  0  0  0  0  0  0  0
   10.8469    2.7894    0.0000 O   0  0  0  0  0  0  0  0  0  0  0  0
   14.1207    1.9876    0.0000 C   0  0  0  0  0  0  0  0  0  0  0  0
    7.9930    0.3038    0.0000 N   0  0  0  0  0  0  0  0  0  0  0  0
    7.9918   -0.5211    0.0000 O   0  0  0  0  0  0  0  0  0  0  0  0
    7.2792    0.7174    0.0000 O   0  0  0  0  0  0  0  0  0  0  0  0
  1  7  1  0  0  0  0 
 14 15  2  0  0  0  0 
 15 10  1  0  0  0  0 
 14 16  1  0  0  0  0 
  7  8  1  0  0  0  0 
 16 17  1  0  0  0  0 
 17 18  2  0  0  0  0 
  1  6  1  0  0  0  0 
  7  9  1  0  0  0  0 
  2  3  1  0  0  0  0 
  3  4  1  0  0  0  0 
 18 19  1  0  0  0  0 
 19 20  2  0  0  0  0 
 20 21  1  0  0  0  0 
 21 17  1  0  0  0  0 
 10 11  2  0  0  0  0 
 21 22  1  0  0  0  0 
  4  5  1  0  0  0  0 
 20 23  1  0  0  0  0 
 11 12  1  0  0  0  0 
 16 24  2  0  0  0  0 
  5  6  1  0  0  0  0 
 23 25  1  0  0  0  0 
 25  4  1  0  0  0  0 
 12 13  2  0  0  0  0 
  1  2  1  0  0  0  0 
 13 14  1  0  0  0  0 
 26 27  2  0  0  0  0 
 26 28  1  0  0  0  0 
 11 26  1  0  0  0  0 
M  CHG  1  26   1
M  CHG  1  28  -1
M  END