
  SciTegic11201309402D

 94100  0  0  1  0            999 V2000
   11.6378   -4.1699    0.0000 C   0  0
   11.9510   -4.9330    0.0000 C   0  0
   12.7737   -4.8710    0.0000 C   0  0
   12.9689   -4.0694    0.0000 C   0  0
   12.2668   -3.6362    0.0000 C   0  0
   10.9761   -1.6028    0.0000 C   0  0  2  0  0  0
   11.7932   -1.4922    0.0000 C   0  0
   12.3951   -2.0639    0.0000 C   0  0
   10.5520   -2.3165    0.0000 C   0  0
   12.3268   -2.8881    0.0000 C   0  0
   11.4015   -0.8959    0.0000 C   0  0
   12.2264   -0.9109    0.0000 C   0  0
   12.6230   -1.6372    0.0000 C   0  0
   13.4470   -1.6525    0.0000 C   0  0
   13.8733   -0.9451    0.0000 C   0  0
   13.4694   -0.2208    0.0000 C   0  0
   12.6466   -0.2091    0.0000 C   0  0
   11.6364   -3.3436    0.0000 C   0  0
   10.8503   -3.0907    0.0000 N   0  0
   10.3667   -3.7602    0.0000 C   0  0  1  0  0  0
   10.8541   -4.4270    0.0000 C   0  0
    9.5418   -3.7625    0.0000 C   0  0
    9.1273   -3.0491    0.0000 O   0  0
    9.1313   -4.4781    0.0000 N   0  0
    8.3063   -4.4804    0.0000 C   0  0  1  0  0  0
    7.8958   -5.1960    0.0000 C   0  0
    7.8918   -3.7671    0.0000 C   0  0
    8.3023   -3.0515    0.0000 O   0  0
    7.0668   -3.7694    0.0000 O   0  0
    7.0708   -5.1983    0.0000 C   0  0
    6.6603   -5.9139    0.0000 C   0  0
    5.8358   -5.9107    0.0000 N   0  0
    5.5158   -6.6711    0.0000 C   0  0
    6.0144   -7.3284    0.0000 N   0  0
    4.6973   -6.7742    0.0000 N   0  0
   10.1477   -1.6001    0.0000 N   0  0
   -3.9208    2.8208    0.0000 C   0  0
   -3.2041    2.4123    0.0000 N   0  0
   -3.9254    3.6458    0.0000 N   0  0
   -4.6330    2.4044    0.0000 N   0  0
   -2.4919    2.8288    0.0000 C   0  0
   -1.7752    2.4203    0.0000 C   0  0
   -1.0630    2.8367    0.0000 C   0  0
   -0.3462    2.4282    0.0000 C   0  0  2  0  0  0
    0.3659    2.8447    0.0000 C   0  0
   -0.3416    1.6032    0.0000 N   0  0
    1.0827    2.4362    0.0000 N   0  0
    0.3613    3.6697    0.0000 O   0  0
    1.0873    1.6112    0.0000 C   0  0  1  0  0  0
    0.3751    1.1947    0.0000 C   0  0
    0.3797    0.3697    0.0000 C   0  0
    1.8040    1.2027    0.0000 C   0  0
    1.8086    0.3777    0.0000 O   0  0
    2.5162    1.6191    0.0000 N   0  0
   -0.3325   -0.0467    0.0000 C   0  0
   -1.0492    0.3618    0.0000 N   0  0
   -1.7614   -0.0547    0.0000 C   0  0
   -2.4781    0.3538    0.0000 N   0  0
   -1.7568   -0.8797    0.0000 N   0  0
    3.2686    1.2907    0.0000 C   0  0  1  0  0  0
    3.8173    1.9073    0.0000 C   0  0
    3.4008    2.6195    0.0000 C   0  0
    2.5949    2.4434    0.0000 C   0  0
    3.2789    0.4658    0.0000 C   0  0
    2.5697    0.0443    0.0000 O   0  0
    3.9986    0.0623    0.0000 N   0  0
    4.0968   -0.7537    0.0000 C   0  0
    4.9058   -0.9150    0.0000 C   0  0
    5.3093   -0.1954    0.0000 C   0  0
    4.7496    0.4106    0.0000 C   0  0  1  0  0  0
    5.1470    1.1334    0.0000 C   0  0
    5.9718    1.1504    0.0000 N   0  0
    6.3990    0.4446    0.0000 C   0  0
    7.2238    0.4617    0.0000 C   0  0
    7.6510   -0.2441    0.0000 O   0  0
    7.6215    1.1845    0.0000 N   0  0
    5.2509   -1.6644    0.0000 O   0  0
    8.4463    1.2016    0.0000 C   0  0  1  0  0  0
    8.8439    1.9244    0.0000 C   0  0
    8.8734    0.4958    0.0000 C   0  0
    9.6688    1.9414    0.0000 C   0  0
   10.1350    2.6161    0.0000 S   0  0
   10.1719    1.2743    0.0000 C   0  0
   10.9392    1.5468    0.0000 C   0  0
   10.9243    2.3709    0.0000 C   0  0
    8.4758   -0.2271    0.0000 O   0  0
    9.6983    0.5128    0.0000 N   0  0
   10.1254   -0.1930    0.0000 C   0  0  1  0  0  0
   10.9503   -0.1760    0.0000 C   0  0
    9.7276   -0.9078    0.0000 C   0  0
    8.9027   -0.9208    0.0000 O   0  0
   11.3479    0.5469    0.0000 O   0  0
    4.7198    1.8392    0.0000 O   0  0
    9.7250   -2.3083    0.0000 O   0  0
 44 46  1  6
 10 18  1  0
 45 47  1  0
 20 22  1  1
 45 48  2  0
  5  1  1  0
 49 47  1  6
 22 23  2  0
 49 50  1  0
  6 11  1  6
 50 51  1  0
 22 24  1  0
 49 52  1  0
  1  2  1  0
 52 53  2  0
 25 24  1  1
 52 54  1  0
 11 12  1  0
 51 55  1  0
 25 26  1  0
 55 56  1  0
 56 57  2  0
 25 27  1  0
 57 58  1  0
 12 13  2  0
 57 59  1  0
 54 60  1  0
 27 28  1  0
  6  7  1  0
 27 29  2  0
 13 14  1  0
 60 61  1  0
 61 62  1  0
 62 63  1  0
 63 54  1  0
 26 30  1  0
 60 64  1  1
  2  3  1  0
 64 65  2  0
 30 31  1  0
 64 66  1  0
 66 67  1  0
 14 15  2  0
 31 32  1  0
  7  8  1  0
 32 33  2  0
 67 68  1  0
 68 69  1  0
 70 69  1  0
 70 66  1  0
 15 16  1  0
 70 71  1  6
 33 34  1  0
 71 72  1  0
  3  4  1  0
 72 73  1  0
 33 35  1  0
 73 74  1  0
 16 17  2  0
 74 75  2  0
  6 36  1  0
 74 76  1  0
 17 12  1  0
 68 77  1  0
 18 19  1  0
 78 76  1  1
 37 38  2  0
 78 79  1  0
  6  9  1  0
 78 80  1  0
 37 39  1  0
 79 81  1  0
  4  5  1  0
 37 40  1  0
  8 10  1  0
 38 41  1  0
 82 81  1  0
 81 83  2  0
 83 84  1  0
 84 85  2  0
 85 82  1  0
  9 19  1  0
 80 86  2  0
 41 42  1  0
 80 87  1  0
 19 20  1  0
 88 87  1  1
 42 43  1  0
 88 89  1  0
 88 90  1  0
 20 21  1  0
 43 44  1  0
 90 91  2  0
 21  1  1  0
 89 92  1  0
 90 36  1  0
 44 45  1  0
 71 93  2  0
  1 18  1  0
  9 94  2  0
M  END