
  SciTegic03291108522D

 14 15  0  0  0  0            999 V2000
   -0.2359   -1.4407    0.0000 Cl  0  0
    2.9471    0.8364    0.0000 Cl  0  0
    0.0191    0.6788    0.0000 S   0  0
   -1.7034   -0.7031    0.0000 O   0  0
   -1.7034    0.7259    0.0000 O   0  0
    0.8037   -0.4011    0.0000 C   0  0
    0.8037    0.4239    0.0000 C   0  0
    0.0191   -0.6560    0.0000 C   0  0
   -0.4659    0.0114    0.0000 C   0  0
    1.5182    0.8364    0.0000 C   0  0
    1.5182   -0.8136    0.0000 C   0  0
   -1.2909    0.0114    0.0000 C   0  0
    2.2326    0.4239    0.0000 C   0  0
    2.2326   -0.4011    0.0000 C   0  0
  1  8  1  0
  2 13  1  0
  3  7  1  0
  3  9  1  0
  4 12  2  0
  5 12  1  0
  6  7  1  0
  6  8  1  0
  6 11  2  0
  7 10  2  0
  8  9  2  0
  9 12  1  0
 10 13  1  0
 11 14  1  0
 13 14  2  0
M  END