
          11280714442D 1   1.00000     0.00000     0

 18 18  0     0  0            999 V2000
    4.7667   -2.2042    0.0000 C   0  0  0  0  0  0           0  0  0
    4.0667   -2.6542    0.0000 C   0  0  0  0  0  0           0  0  0
    5.4917   -2.5875    0.0000 O   0  0  0  0  0  0           0  0  0
    4.7292   -1.3875    0.0000 O   0  0  0  0  0  0           0  0  0
    8.3542   -2.4542    0.0000 N   0  0  0  0  0  0           0  0  0
    4.1125   -3.4750    0.0000 C   0  0  0  0  0  0           0  0  0
    3.3375   -2.2667    0.0000 C   0  0  0  0  0  0           0  0  0
    6.9250   -2.5250    0.0000 C   0  0  3  0  0  0           0  0  0
    6.1917   -2.1417    0.0000 C   0  0  0  0  0  0           0  0  0
    2.6792   -3.5417    0.0000 C   0  0  0  0  0  0           0  0  0
    7.6167   -2.0792    0.0000 C   0  0  0  0  0  0           0  0  0
    1.9875   -3.9875    0.0000 N   0  0  0  0  0  0           0  0  0
    2.6417   -2.7167    0.0000 C   0  0  0  0  0  0           0  0  0
    3.4167   -3.9167    0.0000 C   0  0  0  0  0  0           0  0  0
    6.9625   -3.3500    0.0000 O   0  0  0  0  0  0           0  0  0
    9.0500   -2.0167    0.0000 C   0  0  3  0  0  0           0  0  0
    9.0125   -1.1917    0.0000 C   0  0  0  0  0  0           0  0  0
    9.7792   -2.3917    0.0000 C   0  0  0  0  0  0           0  0  0
  2  1  1  0     0  0
  3  1  1  0     0  0
  4  1  2  0     0  0
  5 11  1  0     0  0
  6  2  1  0     0  0
  7  2  2  0     0  0
  8  9  1  0     0  0
  9  3  1  0     0  0
 10 13  2  0     0  0
 11  8  1  0     0  0
 12 10  1  0     0  0
 13  7  1  0     0  0
 14  6  2  0     0  0
 15  8  1  0     0  0
 16  5  1  0     0  0
 17 16  1  0     0  0
 18 16  1  0     0  0
 14 10  1  0     0  0
M  END