
  CDK    9/16/09,9:51

 26 29  0  0  0  0  0  0  0  0999 V2000
   -3.2671    0.6918    0.0000 C   0  0  0  0  0  0  0  0  0  0  0  0
   -2.5483    1.1042    0.0000 C   0  0  0  0  0  0  0  0  0  0  0  0
   -2.5483    1.9333    0.0000 C   0  0  0  0  0  0  0  0  0  0  0  0
   -3.2671    2.3503    0.0000 C   0  0  0  0  0  0  0  0  0  0  0  0
   -3.2683    3.1749    0.0000 O   0  0  0  0  0  0  0  0  0  0  0  0
   -1.8347    0.6908    0.0000 C   0  0  0  0  0  0  0  0  0  0  0  0
   -1.1200    1.1022    0.0000 N   0  0  0  0  0  0  0  0  0  0  0  0
   -0.4055    0.6833    0.0000 C   0  0  0  0  0  0  0  0  0  0  0  0
    0.3071    1.0911    0.0000 C   0  0  0  0  0  0  0  0  0  0  0  0
    0.3125    1.9161    0.0000 C   0  0  0  0  0  0  0  0  0  0  0  0
   -0.4010    2.3316    0.0000 C   0  0  0  0  0  0  0  0  0  0  0  0
   -1.1198    1.9221    0.0000 C   0  0  0  0  0  0  0  0  0  0  0  0
    1.0287    2.3246    0.0000 C   0  0  0  0  0  0  0  0  0  0  0  0
    1.7408    1.9087    0.0000 C   0  0  0  0  0  0  0  0  0  0  0  0
    1.0330    3.1493    0.0000 O   0  0  0  0  0  0  0  0  0  0  0  0
    1.7339    1.0846    0.0000 C   0  0  0  0  0  0  0  0  0  0  0  0
    2.4450    0.6686    0.0000 C   0  0  0  0  0  0  0  0  0  0  0  0
    3.1624    1.0773    0.0000 C   0  0  0  0  0  0  0  0  0  0  0  0
    3.1640    1.9063    0.0000 C   0  0  0  0  0  0  0  0  0  0  0  0
    2.4522    2.3185    0.0000 C   0  0  0  0  0  0  0  0  0  0  0  0
    3.8750    0.6623    0.0000 F   0  0  0  0  0  0  0  0  0  0  0  0
   -3.9812    1.1042    0.0000 C   0  0  0  0  0  0  0  0  0  0  0  0
   -3.9812    1.9379    0.0000 C   0  0  0  0  0  0  0  0  0  0  0  0
   -4.7742    2.1957    0.0000 C   0  0  0  0  0  0  0  0  0  0  0  0
   -5.2645    1.5211    0.0000 C   0  0  0  0  0  0  0  0  0  0  0  0
   -4.7743    0.8465    0.0000 O   0  0  0  0  0  0  0  0  0  0  0  0
 11 12  1  0  0  0  0 
 23  4  1  0  0  0  0 
 10 13  1  0  0  0  0 
  2  6  1  0  0  0  0 
 13 14  1  0  0  0  0 
 22  1  1  0  0  0  0 
 13 15  2  0  0  0  0 
  6  7  1  0  0  0  0 
 14 16  2  0  0  0  0 
  7  8  1  0  0  0  0 
 16 17  1  0  0  0  0 
  1  2  1  0  0  0  0 
 17 18  2  0  0  0  0 
  2  3  1  0  0  0  0 
 18 19  1  0  0  0  0 
  3  4  1  0  0  0  0 
 19 20  2  0  0  0  0 
 20 14  1  0  0  0  0 
 18 21  1  0  0  0  0 
 22 23  2  0  0  0  0 
  4  5  2  0  0  0  0 
  7 12  1  0  0  0  0 
  8  9  1  0  0  0  0 
  9 10  1  0  0  0  0 
 10 11  1  0  0  0  0 
 23 24  1  0  0  0  0 
 24 25  2  0  0  0  0 
 25 26  1  0  0  0  0 
 26 22  1  0  0  0  0 
M  END