
  SciTegic06011109532D

160167  0  0  0  0            999 V2000
    2.7985   -6.8800    0.0000 C   0  0
    2.7991   -6.0550    0.0000 O   0  0
    2.0838   -7.2920    0.0000 C   0  0
    1.3696   -6.8791    0.0000 O   0  0
    0.6549   -7.2911    0.0000 C   0  0
   -0.0594   -6.8781    0.0000 C   0  0
   -0.7741   -7.2902    0.0000 N   0  0
   -0.0588   -6.0531    0.0000 O   0  0
   -0.7746   -8.1152    0.0000 C   0  0
   -0.0592   -8.5252    0.0000 C   0  0
   -0.0593   -9.3494    0.0000 C   0  0
   -0.7746   -9.7623    0.0000 C   0  0
   -1.4912   -9.3449    0.0000 C   0  0
   -1.4875   -8.5221    0.0000 C   0  0
   -0.7762  -10.5873    0.0000 C   0  0
   -0.0626  -11.0012    0.0000 C   0  0
   -0.0642  -11.8262    0.0000 C   0  0
    0.6495  -12.2401    0.0000 O   0  0
   -0.7795  -12.2373    0.0000 N   0  0
   -0.9948  -13.0335    0.0000 C   0  0
   -1.7912  -12.8184    0.0000 C   0  0
   -1.5761  -12.0219    0.0000 C   0  0
   -0.5838  -13.7488    0.0000 O   0  0
    9.2233   -7.2860    0.0000 C   0  0  2  0  0  0
    8.5118   -6.0481    0.0000 O   0  0
    8.5118   -6.8718    0.0000 C   0  0
    9.2233   -8.1054    0.0000 C   0  0
    8.5118   -8.5191    0.0000 C   0  0
    8.5118   -9.3428    0.0000 C   0  0
    7.0823   -6.8718    0.0000 C   0  0  1  0  0  0
    6.3709   -8.1054    0.0000 O   0  0
    6.3709   -7.2860    0.0000 C   0  0
    4.9414   -7.2860    0.0000 C   0  0  2  0  0  0
    4.2259   -6.0481    0.0000 O   0  0
    4.2259   -6.8718    0.0000 C   0  0
    4.9414   -8.1054    0.0000 C   0  0
    4.2259   -8.5191    0.0000 C   0  0
    9.9380   -6.8758    0.0000 N   0  0
    5.6687   -3.5225    0.0000 C   0  0  2  0  0  0
    6.3901   -2.2893    0.0000 O   0  0
    6.3927   -3.1083    0.0000 C   0  0
    5.6792   -4.3410    0.0000 C   0  0
    7.8096   -3.1008    0.0000 C   0  0  2  0  0  0
    8.5249   -4.3283    0.0000 O   0  0
    8.5252   -3.5011    0.0000 C   0  0
    7.8109   -2.2824    0.0000 C   0  0
    8.5136   -1.8683    0.0000 C   0  0
    7.0919   -1.8691    0.0000 C   0  0
   11.3602   -6.0506    0.0000 C   0  0
   11.3602   -6.8719    0.0000 C   0  0  1  0  0  0
   10.6829   -3.1065    0.0000 C   0  0
    9.9532   -3.5154    0.0000 C   0  0  2  0  0  0
    9.9450   -4.3444    0.0000 C   0  0
   10.6635   -4.7736    0.0000 S   0  0
   10.6546   -5.6121    0.0000 S   0  0
   13.4936   -3.1592    0.0000 C   0  0
   12.0815   -2.3216    0.0000 C   0  0
   11.3640   -1.8997    0.0000 C   0  0  2  0  0  0
   10.6459   -7.2860    0.0000 C   0  0
   10.6455   -8.1049    0.0000 O   0  0
   11.3961   -3.5043    0.0000 O   0  0
   13.5024   -2.3412    0.0000 C   0  0  2  0  0  0
   11.3761   -1.0809    0.0000 C   0  0
   12.0759   -3.1435    0.0000 O   0  0
   14.2113   -1.9404    0.0000 C   0  0
   14.2196   -1.1175    0.0000 C   0  0
   12.7770   -3.5663    0.0000 O   0  0
   12.0665   -8.1116    0.0000 C   0  0
   11.3510   -8.5175    0.0000 O   0  0
   12.7745   -8.5199    0.0000 C   0  0  2  0  0  0
   12.7655   -9.3483    0.0000 C   0  0
   14.1925   -8.5285    0.0000 C   0  0
   14.1891   -9.3508    0.0000 O   0  0
   14.1967   -6.9000    0.0000 C   0  0
   14.1955   -6.0771    0.0000 C   0  0  2  0  0  0
   13.4905   -7.3076    0.0000 O   0  0
   13.4869   -5.6678    0.0000 C   0  0
   14.8985   -4.8388    0.0000 C   0  0
   14.1876   -4.4361    0.0000 O   0  0
   15.6111   -4.4230    0.0000 C   0  0  1  0  0  0
   16.3183   -3.1933    0.0000 C   0  0
   16.3106   -2.3647    0.0000 C   0  0  2  0  0  0
   17.0334   -3.5962    0.0000 O   0  0
   17.0255   -1.9488    0.0000 C   0  0
   17.0241   -1.1322    0.0000 C   0  0
   17.7343   -2.3645    0.0000 C   0  0
    4.9697   -3.1139    0.0000 N   0  0
    7.0960   -3.5116    0.0000 N   0  0
   12.0690   -7.2894    0.0000 N   0  0
   10.6518   -2.3146    0.0000 N   0  0
   12.7945   -1.9175    0.0000 N   0  0
   13.4860   -8.1181    0.0000 N   0  0
   14.9104   -5.6619    0.0000 N   0  0
   15.6221   -3.5949    0.0000 N   0  0
   14.2023   -3.5772    0.0000 N   0  0
    9.2442   -3.1042    0.0000 N   0  0
   14.8966   -0.6502    0.0000 C   0  0
   14.6539    0.1358    0.0000 N   0  0
    7.8002   -7.2860    0.0000 N   0  0
    5.6593   -6.8718    0.0000 N   0  0
    3.5143   -7.2860    0.0000 N   0  0
   13.5674   -0.6319    0.0000 C   0  0
   13.8314    0.1447    0.0000 C   0  0
   13.2914    0.7595    0.0000 C   0  0
   12.4875    0.5991    0.0000 C   0  0
   12.2262   -0.1816    0.0000 C   0  0
   12.7677   -0.7932    0.0000 C   0  0
    4.9636   -4.7666    0.0000 C   0  0
    4.9742   -5.5991    0.0000 O   0  0
    4.2372   -4.3595    0.0000 O   0  0
    4.9742   -2.2813    0.0000 C   0  0
    4.2553   -1.8611    0.0000 C   0  0  2  0  0  0
    5.6974   -1.8688    0.0000 O   0  0
    4.2597   -1.0285    0.0000 C   0  0
    3.5319   -2.2736    0.0000 N   0  0
    4.9830   -0.6160    0.0000 C   0  0
    5.7010   -1.0397    0.0000 C   0  0
    6.4239   -0.6279    0.0000 C   0  0
    6.4287    0.2056    0.0000 C   0  0
    5.7048    0.6257    0.0000 C   0  0
    4.9850    0.2115    0.0000 C   0  0
    7.0807   -6.0391    0.0000 C   0  0
    6.3589   -5.6242    0.0000 C   0  0
   12.7657   -6.0841    0.0000 C   0  0
   12.0447   -5.6676    0.0000 C   0  0
   12.7656   -6.9167    0.0000 C   0  0
   14.9147   -7.2998    0.0000 N   0  0
   14.9114   -8.1207    0.0000 C   0  0  1  0  0  0
   15.6911   -8.3775    0.0000 C   0  0
   16.1762   -7.7153    0.0000 C   0  0
   15.6964   -7.0493    0.0000 C   0  0
   14.9069   -8.9509    0.0000 H   0  0
   12.0400   -9.7569    0.0000 C   0  0
   11.2829   -9.4133    0.0000 C   0  0
   10.7191  -10.0261    0.0000 N   0  0
   11.1277  -10.7516    0.0000 C   0  0
   11.9439  -10.5872    0.0000 N   0  0
   16.3304   -4.8425    0.0000 C   0  0  1  0  0  0
   16.3267   -5.6751    0.0000 C   0  0
   17.0532   -4.4293    0.0000 O   0  0
   15.6049   -5.2544    0.0000 H   0  0
    7.7906   -9.7591    0.0000 C   0  0
    7.7906  -10.5918    0.0000 N   0  0
    7.7944   -5.6253    0.0000 C   0  0
    2.8197   -1.8573    0.0000 C   0  0
    2.1030   -2.2660    0.0000 C   0  0
    2.8241   -1.0323    0.0000 O   0  0
    7.0761  -11.0043    0.0000 C   0  0
    7.0761  -11.8293    0.0000 O   0  0
    6.3617  -10.5918    0.0000 C   0  0
   10.6678   -0.6579    0.0000 C   0  0
   10.6800    0.1670    0.0000 C   0  0
    9.9717    0.5900    0.0000 C   0  0
    9.9839    1.4149    0.0000 N   0  0
    9.2756    1.8379    0.0000 C   0  0
    9.2878    2.6628    0.0000 O   0  0
    8.5551    1.4360    0.0000 C   0  0
    4.2264   -9.3441    0.0000 C   0  0
    3.5122   -9.7571    0.0000 C   0  0
    3.5127  -10.5821    0.0000 N   0  0
 12 13  1  0
 13 14  2  0
 14  9  1  0
 12 15  1  0
 15 16  1  0
 16 17  1  0
 17 18  2  0
 17 19  1  0
 19 20  1  0
 20 21  1  0
 21 22  1  0
 22 19  1  0
 20 23  2  0
  1  2  2  0
  1  3  1  0
  3  4  1  0
  4  5  1  0
  5  6  1  0
  6  7  1  0
  6  8  2  0
  7  9  1  0
  9 10  2  0
 10 11  1  0
 11 12  2  0
103104  1  0
 39 42  1  6
104105  2  0
 43 45  1  0
105106  1  0
 45 44  2  0
106107  2  0
107102  1  0
 43 46  1  0
 42108  1  0
 46 47  1  0
108109  2  0
 46 48  1  0
108110  1  0
 41 88  1  0
 87111  1  0
 43 88  1  1
111112  1  0
 87 39  1  0
111113  2  0
 49 50  1  0
112114  1  1
 50 89  1  0
112115  1  0
 51 52  1  0
114116  1  0
 52 53  1  0
116117  2  0
 53 54  1  0
117118  1  0
 55 54  1  0
118119  2  0
 56 95  1  0
119120  1  0
 91 57  1  0
120121  2  0
121116  1  0
 56 62  1  0
 58 90  1  0
 57 58  1  0
 90 51  1  0
 30122  1  6
 55 49  1  0
 50 59  1  6
122123  1  0
 59 60  2  0
 77124  1  0
 52 96  1  6
124125  1  0
 96 45  1  0
124126  1  0
127128  1  0
 51 61  2  0
 91 62  1  0
 58 63  1  1
 57 64  2  0
 62 65  1  1
128129  1  0
129130  1  0
130131  1  0
131127  1  0
 65 66  1  0
128132  1  6
 56 67  2  0
 71133  1  0
133134  2  0
 89 68  1  0
 68 69  2  0
 68 70  1  0
 70 71  1  1
134135  1  0
135136  2  0
136137  1  0
137133  1  0
 70 92  1  0
 80138  1  0
 92 72  1  0
138139  1  0
128 72  1  0
138140  1  6
 72 73  2  0
 80141  1  6
127 74  1  0
 29142  1  0
 74 75  1  0
142143  1  0
122144  1  0
 74 76  2  0
115145  1  0
 75 93  1  0
145146  1  0
 75 77  1  6
145147  2  0
 93 78  1  0
143148  1  0
 78 79  2  0
148149  2  0
 78 80  1  0
148150  1  0
 80 94  1  0
 63151  1  0
 94 81  1  0
151152  1  0
 81 82  1  0
152153  1  0
 81 83  2  0
153154  1  0
 82 84  1  1
154155  1  0
 84 85  1  0
155156  2  0
 84 86  1  0
155157  1  0
 82 95  1  0
 37158  1  0
 24 26  1  0
158159  1  0
 26 25  2  0
159160  1  0
 24 27  1  1
 27 28  1  0
 28 29  1  0
 66 97  2  0
 99 30  1  0
 30 32  1  0
 97 98  1  0
102 66  1  0
 32 31  2  0
103 98  1  0
100 33  1  0
 33 35  1  0
 35 34  2  0
 59 38  1  0
 33 36  1  1
 36 37  1  0
 24 38  1  0
 26 99  1  0
 32100  1  0
 35101  1  0
 39 41  1  0
102103  2  0
 41 40  2  0
101  1  1  0
M  END