
  SciTegic04071410272D

 27 29  0  0  0  0            999 V2000
    1.3367    0.5801    0.0000 C   0  0  1  0  0  0
    0.2908   -0.2225    0.0000 C   0  0  2  0  0  0
    0.7953    0.2018    0.0000 C   0  0
    1.7553    0.2125    0.0000 C   0  0  1  0  0  0
    1.8865    1.0161    0.0000 N   0  3
    0.4177    0.5794    0.0000 C   0  0
    1.8023   -0.7744    0.0000 C   0  0
    1.3981   -0.3730    0.0000 C   0  0
   -0.1150   -0.9408    0.0000 C   0  0
   -0.9399   -0.9485    0.0000 C   0  0
   -0.9476   -0.1235    0.0000 C   0  0
   -1.7649   -0.9562    0.0000 C   0  0
    1.6609    1.3388    0.0000 H   0  0
    2.3213    0.8128    0.0000 H   0  0
    2.6487    1.3319    0.0000 C   0  0
    1.7912    1.8356    0.0000 C   0  0
   -2.2435   -1.6282    0.0000 C   0  0
   -3.0305   -1.3806    0.0000 C   0  0
   -3.0382   -0.5556    0.0000 C   0  0
   -2.2560   -0.2933    0.0000 S   0  0
   -1.6196    0.3551    0.0000 S   0  0
   -1.3720    1.1421    0.0000 C   0  0
   -0.5470    1.1498    0.0000 C   0  0
   -0.2848    0.3676    0.0000 C   0  0
   -0.9322   -1.7735    0.0000 O   0  0
    0.9860   -0.9539    0.0000 C   0  0
    4.7701    0.0000    0.0000 I   0  5
  3  4  1  0
  1 13  1  1
  4  5  1  0
  4 14  1  6
  1  5  1  0
  5 15  1  0
  1  6  1  0
  5 16  1  0
 12 17  2  0
  6  2  1  0
  4  7  1  0
  1  8  1  0
 17 18  1  0
 18 19  2  0
 19 20  1  0
 20 12  1  0
 11 21  1  0
  2  9  1  1
  9 10  1  0
 21 22  1  0
 22 23  2  0
 23 24  1  0
 24 11  2  0
 10 11  1  0
 10 25  1  0
  2  3  1  0
  7 26  1  0
  8 26  1  0
 10 12  1  0
M  CHG  2   5   1  27  -1
M  END