
  SciTegic01091216402D

 16 17  0  0  0  0            999 V2000
    0.2276  -13.0672    0.0000 C   0  0
    0.2265  -13.8943    0.0000 C   0  0
    0.9411  -14.3070    0.0000 C   0  0
    1.6573  -13.8938    0.0000 C   0  0
    1.6545  -13.0636    0.0000 C   0  0
    0.9393  -12.6545    0.0000 C   0  0
    2.3641  -12.6498    0.0000 C   0  0
    3.0802  -13.0612    0.0000 N   0  0
    3.7925  -12.6468    0.0000 C   0  0
    3.7898  -11.8211    0.0000 N   0  0
    3.0690  -11.4116    0.0000 C   0  0
    2.3597  -11.8284    0.0000 N   0  0
    3.0630  -10.5869    0.0000 N   0  0
    4.5081  -13.0569    0.0000 S   0  0
    5.2211  -12.6421    0.0000 C   0  0
    0.9368  -11.8297    0.0000 Cl  0  0
  8  9  1  0
  4  5  1  0
  9 10  2  0
  2  3  1  0
 10 11  1  0
  5  6  2  0
 11 12  2  0
 12  7  1  0
  5  7  1  0
  6  1  1  0
 11 13  1  0
  1  2  2  0
  9 14  1  0
  3  4  2  0
 14 15  1  0
  7  8  2  0
  6 16  1  0
M  END