
          11280715082D 1   1.00000     0.00000     0

 30 33  0     0  0            999 V2000
    3.5167   -1.5042    0.0000 C   0  0  0  0  0  0           0  0  0
    3.5167   -2.1125    0.0000 C   0  0  0  0  0  0           0  0  0
    4.0375   -1.2125    0.0000 C   0  0  0  0  0  0           0  0  0
    5.0750   -1.2125    0.0000 C   0  0  0  0  0  0           0  0  0
    4.5542   -1.5125    0.0000 C   0  0  0  0  0  0           0  0  0
    5.5917   -1.5125    0.0000 C   0  0  0  0  0  0           0  0  0
    3.0000   -1.2042    0.0000 C   0  0  3  0  0  0           0  0  0
    8.1917   -2.4167    0.0000 C   0  0  0  0  0  0           0  0  0
    3.0000   -2.4125    0.0000 C   0  0  3  0  0  0           0  0  0
    7.6667   -2.1167    0.0000 C   0  0  0  0  0  0           0  0  0
    6.1167   -1.2167    0.0000 C   0  0  0  0  0  0           0  0  0
    4.0417   -2.4125    0.0000 C   0  0  0  0  0  0           0  0  0
    7.1500   -2.4167    0.0000 C   0  0  0  0  0  0           0  0  0
    6.6292   -1.5167    0.0000 C   0  0  0  0  0  0           0  0  0
    6.6292   -2.1167    0.0000 C   0  0  0  0  0  0           0  0  0
    5.0750   -0.6125    0.0000 N   0  0  0  0  0  0           0  0  0
    4.5542   -2.1125    0.0000 C   0  0  0  0  0  0           0  0  0
    5.5917   -2.1167    0.0000 C   0  0  0  0  0  0           0  0  0
    2.4792   -1.5042    0.0000 C   0  0  0  0  0  0           0  0  0
    8.1917   -3.0167    0.0000 O   0  0  0  0  0  0           0  0  0
    2.4750   -2.1042    0.0000 C   0  0  0  0  0  0           0  0  0
    7.6667   -1.5125    0.0000 C   0  0  0  0  0  0           0  0  0
    6.1125   -2.4167    0.0000 C   0  0  0  0  0  0           0  0  0
    7.1500   -1.2167    0.0000 C   0  0  0  0  0  0           0  0  0
    8.7125   -2.1167    0.0000 O   0  0  0  0  0  0           0  0  0
    4.4917    0.0333    0.0000 O   0  0  0  0  0  0           0  0  0
    2.4792   -0.9042    0.0000 C   0  0  0  0  0  0           0  0  0
    3.4167   -0.7792    0.0000 C   0  0  0  0  0  0           0  0  0
    2.4750   -2.7042    0.0000 C   0  0  0  0  0  0           0  0  0
    3.5125   -2.7125    0.0000 C   0  0  0  0  0  0           0  0  0
  2  1  2  0     0  0
  3  1  1  0     0  0
  4  5  1  0     0  0
  5  3  2  0     0  0
  6  4  1  0     0  0
  7  1  1  0     0  0
  8 10  1  0     0  0
  9  2  1  0     0  0
 10 13  2  0     0  0
 11  6  1  0     0  0
 12  2  1  0     0  0
 13 15  1  0     0  0
 14 11  2  0     0  0
 15 23  2  0     0  0
 16  4  2  0     0  0
 17  5  1  0     0  0
 18  6  2  0     0  0
 19  7  1  0     0  0
 20  8  2  0     0  0
 21 19  1  0     0  0
 22 24  2  0     0  0
 23 18  1  0     0  0
 24 14  1  0     0  0
 25  8  1  0     0  0
 16 26  1  0     0  0
 27  7  1  0     0  0
 28  7  1  0     0  0
 29  9  1  0     0  0
 30  9  1  0     0  0
 21  9  1  0     0  0
 12 17  2  0     0  0
 15 14  1  0     0  0
 10 22  1  0     0  0
M  END