
  SciTegic05171617282D

 40 44  0  0  0  0            999 V2000
    2.3383   -1.3500    0.0000 O   0  0
    1.2990   -0.7500    0.0000 C   0  0
    1.2990    0.7500    0.0000 C   0  0
    0.0000    1.5000    0.0000 C   0  0
    0.0000    2.7000    0.0000 O   0  0
   -1.2990    0.7500    0.0000 C   0  0
   -2.5987    1.5004    0.0000 C   0  0
   -2.7390    2.9810    0.0000 C   0  0
   -4.2067    3.2905    0.0000 C   0  0
   -4.9546    1.9903    0.0000 N   0  0
   -3.9492    0.8772    0.0000 O   0  0
   -4.8211    4.6570    0.0000 C   0  0
   -4.1190    5.6302    0.0000 O   0  0
   -6.3142    4.8094    0.0000 N   0  0
   -6.9296    6.1782    0.0000 C   0  0
   -8.4217    6.3326    0.0000 C   0  0
   -9.0340    7.7020    0.0000 C   0  0
   -8.1543    8.9169    0.0000 N   0  0
   -6.6623    8.7626    0.0000 C   0  0
   -6.0500    7.3933    0.0000 C   0  0
   -8.7670   10.2869    0.0000 C   0  0
  -10.2588   10.4438    0.0000 C   0  0
  -10.8690   11.8141    0.0000 C   0  0
   -9.9874   13.0276    0.0000 C   0  0
  -11.1834   13.1248    0.0000 F   0  0
   -9.2595   13.9816    0.0000 F   0  0
   -8.4956   12.8709    0.0000 C   0  0
   -7.8854   11.5006    0.0000 C   0  0
   -1.2990   -0.7500    0.0000 C   0  0
   -2.5972   -1.5031    0.0000 O   0  0
   -2.5951   -3.0039    0.0000 C   0  0
   -3.8915   -3.7585    0.0000 C   0  0
   -3.8863   -5.2585    0.0000 C   0  0
   -2.5847   -6.0040    0.0000 C   0  0
   -1.2883   -5.2495    0.0000 C   0  0
   -1.2935   -3.7495    0.0000 C   0  0
   -2.5764   -7.5048    0.0000 N   0  3
   -3.6125   -8.1102    0.0000 O   0  5
   -1.5343   -8.0997    0.0000 O   0  0
    0.0000   -1.5000    0.0000 C   0  0
  1  2  1  0
  2  3  2  0
  3  4  1  0
  4  5  1  0
  4  6  2  0
  6  7  1  0
  7  8  2  0
  8  9  1  0
  9 10  2  0
 10 11  1  0
  7 11  1  0
  9 12  1  0
 12 13  2  0
 12 14  1  0
 14 15  1  0
 15 16  1  0
 16 17  1  0
 17 18  1  0
 18 19  1  0
 19 20  1  0
 15 20  1  0
 18 21  1  0
 21 22  1  0
 22 23  1  0
 23 24  1  0
 24 25  1  0
 24 26  1  0
 24 27  1  0
 27 28  1  0
 21 28  1  0
  6 29  1  0
 29 30  1  0
 30 31  1  0
 31 32  2  0
 32 33  1  0
 33 34  2  0
 34 35  1  0
 35 36  2  0
 31 36  1  0
 34 37  1  0
 37 38  1  0
 37 39  2  0
 29 40  2  0
  2 40  1  0
M  CHG  2  37   1  38  -1
M  END