
          11280715472D 1   1.00000     0.00000     0

 30 33  0     0  0            999 V2000
    2.7792    3.1458    0.0000 N   0  0  3  0  0  0           0  0  0
   -0.0708   -1.8042    0.0000 N   0  0  3  0  0  0           0  0  0
    2.0667    3.5583    0.0000 C   0  0  0  0  0  0           0  0  0
    2.7792    2.3208    0.0000 C   0  0  0  0  0  0           0  0  0
    1.3500    3.1458    0.0000 C   0  0  0  0  0  0           0  0  0
    2.0667    1.9083    0.0000 C   0  0  0  0  0  0           0  0  0
    0.6375   -1.3917    0.0000 C   0  0  0  0  0  0           0  0  0
    0.6375    1.9083    0.0000 O   0  0  0  0  0  0           0  0  0
    3.5000    3.5583    0.0000 C   0  0  3  0  0  0           0  0  0
    1.3542    2.3208    0.0000 C   0  0  3  0  0  0           0  0  0
   -0.7833   -1.3917    0.0000 C   0  0  0  0  0  0           0  0  0
   -0.0708   -2.6292    0.0000 C   0  0  0  0  0  0           0  0  0
    0.6375    1.0833    0.0000 C   0  0  0  0  0  0           0  0  0
    0.6375   -0.5667    0.0000 C   0  0  0  0  0  0           0  0  0
   -2.2208   -3.0292    0.0000 C   0  0  0  0  0  0           0  0  0
   -1.5000   -2.6167    0.0000 C   0  0  3  0  0  0           0  0  0
    1.3542    0.6833    0.0000 C   0  0  0  0  0  0           0  0  0
   -0.0708    0.6708    0.0000 C   0  0  0  0  0  0           0  0  0
   -0.0708   -0.1542    0.0000 C   0  0  0  0  0  0           0  0  0
    1.3542   -0.1542    0.0000 C   0  0  0  0  0  0           0  0  0
   -2.9333   -2.6042    0.0000 C   0  0  0  0  0  0           0  0  0
   -0.7875   -3.0292    0.0000 C   0  0  0  0  0  0           0  0  0
   -1.5000   -1.7917    0.0000 C   0  0  0  0  0  0           0  0  0
    3.5000    4.3750    0.0000 C   0  0  0  0  0  0           0  0  0
    4.2125    3.1458    0.0000 C   0  0  0  0  0  0           0  0  0
   -2.9208   -1.7792    0.0000 C   0  0  0  0  0  0           0  0  0
   -3.6458   -3.0167    0.0000 C   0  0  0  0  0  0           0  0  0
   -3.6333   -1.3667    0.0000 C   0  0  0  0  0  0           0  0  0
   -4.3625   -2.6042    0.0000 C   0  0  0  0  0  0           0  0  0
   -4.3500   -1.7667    0.0000 C   0  0  0  0  0  0           0  0  0
  2  7  1  0     0  0
  3  1  1  0     0  0
  4  1  1  0     0  0
  5  3  1  0     0  0
  6  4  1  0     0  0
  7 14  1  0     0  0
  8 10  1  0     0  0
  9  1  1  0     0  0
 10  6  1  0     0  0
 11  2  1  0     0  0
 12  2  1  0     0  0
 13  8  1  0     0  0
 14 19  1  0     0  0
 15 16  1  0     0  0
 16 22  1  0     0  0
 17 13  2  0     0  0
 18 13  1  0     0  0
 19 18  2  0     0  0
 20 17  1  0     0  0
 21 15  1  0     0  0
 22 12  1  0     0  0
 23 11  1  0     0  0
 24  9  1  0     0  0
 25  9  1  0     0  0
 26 21  2  0     0  0
 27 21  1  0     0  0
 28 26  1  0     0  0
 29 27  2  0     0  0
 30 29  1  0     0  0
  5 10  1  0     0  0
 14 20  2  0     0  0
 16 23  1  0     0  0
 30 28  2  0     0  0
M  END