
          11280715582D 1   1.00000     0.00000     0

 70 76  0     1  0            999 V2000
    4.5917   -1.7542    0.0000 N   0  0  0  0  0  0           0  0  0
    7.7667   -4.5167    0.0000 N   0  0  0  0  0  0           0  0  0
    9.4792   -2.8417    0.0000 N   0  0  0  0  0  0           0  0  0
    5.4292   -3.9917    0.0000 N   0  0  0  0  0  0           0  0  0
    4.9042   -3.3542    0.0000 C   0  0  0  0  0  0           0  0  0
    9.1042   -3.5792    0.0000 C   0  0  0  0  0  0           0  0  0
    4.8417   -0.9625    0.0000 C   0  0  0  0  0  0           0  0  0
    9.8042   -4.7750    0.0000 C   0  0  0  0  0  0           0  0  0
    6.9417   -4.6042    0.0000 C   0  0  0  0  0  0           0  0  0
    4.6167   -2.5792    0.0000 C   0  0  2  0  0  0           0  0  0
    3.8042   -2.7375    0.0000 C   0  0  0  0  0  0           0  0  0
    3.2125   -3.3167    0.0000 C   0  0  0  0  0  0           0  0  0
    6.0125    0.1750    0.0000 N   0  0  0  0  0  0           0  0  0
    8.5125   -4.1625    0.0000 C   0  0  2  0  0  0           0  0  0
    1.0375   -3.4542    0.0000 C   0  0  1  0  0  0           0  0  0
    5.3292   -0.2917    0.0000 C   0  0  2  0  0  0           0  0  0
    9.5917   -2.0292    0.0000 C   0  0  1  0  0  0           0  0  0
   11.1042   -5.0792    0.0000 N   0  0  0  0  0  0           0  0  0
    9.4292   -1.2167    0.0000 C   0  0  0  0  0  0           0  0  0
   10.3500   -5.4000    0.0000 C   0  0  0  0  0  0           0  0  0
    6.1375   -4.4167    0.0000 C   0  0  1  0  0  0           0  0  0
    2.4167   -3.1000    0.0000 N   0  0  3  0  0  0           0  0  0
    6.8042    0.4000    0.0000 C   0  0  0  0  0  0           0  0  0
    8.9875   -4.8417    0.0000 C   0  0  0  0  0  0           0  0  0
   10.2375   -4.0667    0.0000 C   0  0  0  0  0  0           0  0  0
    9.0167   -0.5000    0.0000 N   0  0  0  0  0  0           0  0  0
    1.8292   -3.6792    0.0000 C   0  0  0  0  0  0           0  0  0
   11.0417   -4.2542    0.0000 C   0  0  0  0  0  0           0  0  0
    6.0167   -6.6042    0.0000 C   0  0  0  0  0  0           0  0  0
   -0.3250   -2.9250    0.0000 C   0  0  2  0  0  0           0  0  0
    0.6875   -2.1500    0.0000 C   0  0  1  0  0  0           0  0  0
   -0.3125   -3.4125    0.0000 C   0  0  1  0  0  0           0  0  0
    4.1917   -3.7667    0.0000 O   0  0  0  0  0  0           0  0  0
    9.7667   -4.0667    0.0000 O   0  0  0  0  0  0           0  0  0
    4.1042   -0.5875    0.0000 O   0  0  0  0  0  0           0  0  0
    6.9000   -5.4292    0.0000 O   0  0  0  0  0  0           0  0  0
    3.4167   -4.1167    0.0000 O   0  0  0  0  0  0           0  0  0
    7.6292    0.3583    0.0000 C   0  0  0  0  0  0           0  0  0
   10.4167   -2.0042    0.0000 C   0  0  0  0  0  0           0  0  0
    1.3000   -2.6792    0.0000 C   0  0  0  0  0  0           0  0  0
    0.2667   -3.3917    0.0000 C   0  0  0  0  0  0           0  0  0
    0.3042   -3.9292    0.0000 C   0  0  0  0  0  0           0  0  0
   10.0292   -0.9792    0.0000 O   0  0  0  0  0  0           0  0  0
    4.7542    0.2958    0.0000 C   0  0  0  0  0  0           0  0  0
    6.7125    1.2250    0.0000 O   0  0  0  0  0  0           0  0  0
    5.2042   -6.7167    0.0000 O   0  0  0  0  0  0           0  0  0
    5.8250   -5.1917    0.0000 C   0  0  0  0  0  0           0  0  0
   -0.0833   -2.1667    0.0000 C   0  0  0  0  0  0           0  0  0
   -0.0500   -2.6042    0.0000 C   0  0  0  0  0  0           0  0  0
   -1.1458   -3.3750    0.0000 C   0  0  0  0  0  0           0  0  0
    2.4125   -2.2750    0.0000 N   0  0  0  0  0  0           0  0  0
    8.3917    0.0458    0.0000 C   0  0  0  0  0  0           0  0  0
    6.3292   -5.8417    0.0000 C   0  0  0  0  0  0           0  0  0
    6.5292   -7.2625    0.0000 N   0  0  0  0  0  0           0  0  0
   10.8167   -1.2792    0.0000 C   0  0  0  0  0  0           0  0  0
   10.0000   -3.2750    0.0000 C   0  0  0  0  0  0           0  0  0
    3.8792    0.6083    0.0000 C   0  0  3  0  0  0           0  0  0
   11.6042   -3.6542    0.0000 C   0  0  0  0  0  0           0  0  0
   11.6417   -1.2542    0.0000 C   0  0  0  0  0  0           0  0  0
   10.3792   -0.5667    0.0000 C   0  0  0  0  0  0           0  0  0
    3.6542   -0.1792    0.0000 C   0  0  0  0  0  0           0  0  0
    3.3042    1.2083    0.0000 C   0  0  0  0  0  0           0  0  0
   10.5667   -2.6667    0.0000 C   0  0  0  0  0  0           0  0  0
   11.3667   -2.8625    0.0000 C   0  0  0  0  0  0           0  0  0
   12.0292   -0.5250    0.0000 C   0  0  0  0  0  0           0  0  0
   10.7667    0.1583    0.0000 C   0  0  0  0  0  0           0  0  0
   11.6000    0.1750    0.0000 C   0  0  0  0  0  0           0  0  0
    0.9542   -1.3792    0.0000 H   0  0  0  0  0  0           0  0  0
   -0.6125   -4.1792    0.0000 H   0  0  0  0  0  0           0  0  0
   -0.9583   -2.4000    0.0000 H   0  0  0  0  0  0           0  0  0
  2  9  1  0     0  0
  3  6  1  0     0  0
  4  5  1  0     0  0
  5 10  1  0     0  0
  6 14  1  0     0  0
  7  1  1  0     0  0
  8 24  1  0     0  0
  9 21  1  0     0  0
 10  1  1  0     0  0
 10 11  1  6     0  0
 12 11  1  0     0  0
 13 16  1  0     0  0
 14  2  1  0     0  0
 15 27  1  6     0  0
 16  7  1  0     0  0
 17 19  1  0     0  0
 18 20  1  0     0  0
 19 26  1  0     0  0
 20  8  2  0     0  0
 21  4  1  0     0  0
 22 12  1  0     0  0
 23 13  1  0     0  0
 14 24  1  6     0  0
 25  8  1  0     0  0
 26 52  1  0     0  0
 27 22  1  0     0  0
 28 25  2  0     0  0
 29 53  1  0     0  0
 30 41  1  0     0  0
 31 40  1  0     0  0
 32 42  1  0     0  0
 33  5  2  0     0  0
 34  6  2  0     0  0
 35  7  2  0     0  0
 36  9  2  0     0  0
 37 12  2  0     0  0
 38 23  1  0     0  0
 17 39  1  1     0  0
 40 15  1  0     0  0
 41 15  1  0     0  0
 42 15  1  0     0  0
 43 19  2  0     0  0
 16 44  1  1     0  0
 45 23  2  0     0  0
 46 29  2  0     0  0
 21 47  1  1     0  0
 48 30  1  0     0  0
 49 32  1  0     0  0
 50 32  1  0     0  0
 51 22  1  0     0  0
 52 38  1  0     0  0
 53 47  1  0     0  0
 54 29  1  0     0  0
 55 39  1  0     0  0
 56 25  1  0     0  0
 57 44  1  0     0  0
 58 28  1  0     0  0
 59 55  1  0     0  0
 60 55  2  0     0  0
 61 57  1  0     0  0
 62 57  1  0     0  0
 63 56  2  0     0  0
 64 63  1  0     0  0
 65 59  2  0     0  0
 66 60  1  0     0  0
 67 66  2  0     0  0
 31 68  1  1     0  0
 32 69  1  1     0  0
 30 70  1  6     0  0
 50 30  1  0     0  0
 31 49  1  0     0  0
 31 48  1  0     0  0
  3 17  1  0     0  0
 28 18  1  0     0  0
 58 64  2  0     0  0
 65 67  1  0     0  0
M  END