
  SciTegic01181116592D

 28 30  0  0  0  0            999 V2000
    5.6293   -7.5180    0.0000 C   0  0
    4.9152   -7.9263    0.0000 C   0  0
    4.9151   -8.7534    0.0000 C   0  0
    5.6311   -9.1664    0.0000 C   0  0
    6.3404   -8.7548    0.0000 C   0  0
    6.3412   -7.9291    0.0000 C   0  0
    5.6281   -9.9902    0.0000 S   0  0
    4.8054   -9.9912    0.0000 O   0  0
    6.4524   -9.9901    0.0000 O   0  0
    5.6284  -10.8108    0.0000 N   0  0
    5.6309   -6.6931    0.0000 N   0  0
    3.4930   -5.4567    0.0000 N   0  0
    3.4919   -6.2828    0.0000 C   0  0
    4.2098   -6.6951    0.0000 N   0  0
    4.9209   -6.2823    0.0000 C   0  0
    4.9181   -5.4531    0.0000 C   0  0
    4.2080   -5.0447    0.0000 C   0  0
    4.2097   -4.2210    0.0000 N   0  0
    3.4992   -3.8112    0.0000 C   0  0
    3.4968   -2.9833    0.0000 C   0  0
    4.2108   -2.5700    0.0000 C   0  0
    4.2129   -1.7429    0.0000 C   0  0
    3.4977   -1.3323    0.0000 C   0  0
    2.7875   -1.7425    0.0000 C   0  0
    2.7848   -2.5723    0.0000 C   0  0
    5.6383   -5.0303    0.0000 N   0  3
    5.6248   -4.2052    0.0000 O   0  0
    6.3594   -5.4381    0.0000 O   0  5
  2  3  1  0
 14 15  2  0
  4  7  1  0
 15 16  1  0
 16 17  2  0
 17 12  1  0
 15 11  1  0
  7  8  2  0
 17 18  1  0
  3  4  2  0
 18 19  1  0
  7  9  2  0
 19 20  1  0
  1  2  2  0
 20 21  2  0
  7 10  1  0
 21 22  1  0
  4  5  1  0
 22 23  2  0
 11  1  1  0
 23 24  1  0
  5  6  2  0
 24 25  2  0
 25 20  1  0
 12 13  2  0
 16 26  1  0
  6  1  1  0
 13 14  1  0
 26 27  2  0
 26 28  1  0
M  CHG  2  26   1  28  -1
M  END