
  CDK    9/16/09,10:4

 22 24  0  0  0  0  0  0  0  0999 V2000
   -1.2861  -18.6505    0.0000 C   0  0  0  0  0  0  0  0  0  0  0  0
   -0.5724  -18.2384    0.0000 N   0  0  0  0  0  0  0  0  0  0  0  0
   -1.9998  -18.2384    0.0000 N   0  0  0  0  0  0  0  0  0  0  0  0
   -1.2861  -19.4746    0.0000 S   0  0  0  0  0  0  0  0  0  0  0  0
   -2.7134  -18.6505    0.0000 C   0  0  0  0  0  0  0  0  0  0  0  0
   -3.4266  -18.2353    0.0000 C   0  0  0  0  0  0  0  0  0  0  0  0
   -4.1398  -18.6467    0.0000 C   0  0  0  0  0  0  0  0  0  0  0  0
   -4.1403  -19.4717    0.0000 C   0  0  0  0  0  0  0  0  0  0  0  0
   -3.4216  -19.8835    0.0000 C   0  0  0  0  0  0  0  0  0  0  0  0
   -2.7112  -19.4698    0.0000 C   0  0  0  0  0  0  0  0  0  0  0  0
    0.1412  -18.6505    0.0000 C   0  0  0  0  0  0  0  0  0  0  0  0
    0.1387  -19.4757    0.0000 C   0  0  0  0  0  0  0  0  0  0  0  0
    0.8516  -19.8876    0.0000 C   0  0  0  0  0  0  0  0  0  0  0  0
    0.8502  -18.2389    0.0000 C   0  0  0  0  0  0  0  0  0  0  0  0
    1.5636  -18.6472    0.0000 C   0  0  0  0  0  0  0  0  0  0  0  0
    1.5673  -19.4741    0.0000 C   0  0  0  0  0  0  0  0  0  0  0  0
    2.3548  -19.7262    0.0000 C   0  0  0  0  0  0  0  0  0  0  0  0
    2.8379  -19.0550    0.0000 O   0  0  0  0  0  0  0  0  0  0  0  0
    2.3489  -18.3882    0.0000 C   0  0  0  0  0  0  0  0  0  0  0  0
    2.6001  -17.6034    0.0000 O   0  0  0  0  0  0  0  0  0  0  0  0
   -4.8533  -18.2343    0.0000 F   0  0  0  0  0  0  0  0  0  0  0  0
   -3.4187  -20.7076    0.0000 F   0  0  0  0  0  0  0  0  0  0  0  0
  2 11  1  0  0  0  0 
  5  6  2  0  0  0  0 
 11 12  2  0  0  0  0 
  1  2  1  0  0  0  0 
 12 13  1  0  0  0  0 
 13 16  2  0  0  0  0 
  6  7  1  0  0  0  0 
 15 14  2  0  0  0  0 
 14 11  1  0  0  0  0 
 15 16  1  0  0  0  0 
  1  4  2  0  0  0  0 
  7  8  2  0  0  0  0 
  8  9  1  0  0  0  0 
  3  5  1  0  0  0  0 
 16 17  1  0  0  0  0 
 17 18  1  0  0  0  0 
 18 19  1  0  0  0  0 
 19 15  1  0  0  0  0 
  9 10  2  0  0  0  0 
 19 20  2  0  0  0  0 
 10  5  1  0  0  0  0 
  7 21  1  0  0  0  0 
  1  3  1  0  0  0  0 
  9 22  1  0  0  0  0 
M  END