
  CDK    6/4/10,11:42

 24 23  0  0  0  0  0  0  0  0999 V2000
   20.8571  -11.7607    0.0000 C   0  0  0  0  0  0  0  0  0  0  0  0
   20.4562  -12.4845    0.0000 C   0  0  0  0  0  0  0  0  0  0  0  0
   19.6308  -12.4980    0.0000 C   0  0  0  0  0  0  0  0  0  0  0  0
   19.2054  -11.7887    0.0000 N   0  0  0  0  0  0  0  0  0  0  0  0
   19.6114  -11.0641    0.0000 C   0  0  0  0  0  0  0  0  0  0  0  0
   20.4355  -11.0541    0.0000 C   0  0  0  0  0  0  0  0  0  0  0  0
   21.6820  -11.7475    0.0000 C   0  0  0  0  0  0  0  0  0  0  0  0
   22.1059  -12.4553    0.0000 N   0  0  0  0  0  0  0  0  0  0  0  0
   22.0830  -11.0265    0.0000 O   0  0  0  0  0  0  0  0  0  0  0  0
   14.2027  -10.5541    0.0000 C   0  0  0  0  0  0  0  0  0  0  0  0
   14.2016  -11.3815    0.0000 C   0  0  0  0  0  0  0  0  0  0  0  0
   14.9164  -11.7944    0.0000 C   0  0  0  0  0  0  0  0  0  0  0  0
   15.6328  -11.3810    0.0000 N   0  0  0  0  0  0  0  0  0  0  0  0
   15.6300  -10.5505    0.0000 C   0  0  0  0  0  0  0  0  0  0  0  0
   14.9146  -10.1414    0.0000 C   0  0  0  0  0  0  0  0  0  0  0  0
   16.3480  -11.7924    0.0000 C   0  0  0  0  0  0  0  0  0  0  0  0
   17.0618  -11.3788    0.0000 C   0  0  0  0  0  0  0  0  0  0  0  0
   17.7769  -11.7902    0.0000 C   0  0  0  0  0  0  0  0  0  0  0  0
   18.4907  -11.3765    0.0000 C   0  0  0  0  0  0  0  0  0  0  0  0
   13.4882  -10.1418    0.0000 C   0  0  0  0  0  0  0  0  0  0  0  0
   13.4880   -9.3168    0.0000 N   0  0  0  0  0  0  0  0  0  0  0  0
   12.7734   -8.9045    0.0000 O   0  0  0  0  0  0  0  0  0  0  0  0
   16.2812  -10.9375    0.0000 Br  0  0  0  0  0  0  0  0  0  0  0  0
   19.1563  -12.5625    0.0000 Br  0  0  0  0  0  0  0  0  0  0  0  0
  5  6  2  0  0  0  0 
 11 12  1  0  0  0  0 
  6  1  1  0  0  0  0 
 12 13  2  0  0  0  0 
  1  2  2  0  0  0  0 
 13 14  1  0  0  0  0 
  1  7  1  0  0  0  0 
 14 15  2  0  0  0  0 
 15 10  1  0  0  0  0 
  3  4  2  0  0  0  0 
 13 16  1  0  0  0  0 
  7  8  1  0  0  0  0 
 16 17  1  0  0  0  0 
 17 18  1  0  0  0  0 
  7  9  2  0  0  0  0 
 18 19  1  0  0  0  0 
 19  4  1  0  0  0  0 
  4  5  1  0  0  0  0 
 10 20  1  0  0  0  0 
  2  3  1  0  0  0  0 
 20 21  2  0  0  0  0 
 10 11  2  0  0  0  0 
 21 22  1  0  0  0  0 
M  CHG  1   4   1
M  CHG  1  13   1
M  CHG  1  23  -1
M  CHG  1  24  -1
M  END