
          11280715492D 1   1.00000     0.00000     0

 23 25  0     0  0            999 V2000
    0.8239  -18.0626    0.0000 C   0  0  0  0  0  0           0  0  0
    1.5434  -18.4726    0.0000 C   0  0  0  0  0  0           0  0  0
   -2.7375  -15.9958    0.0000 C   0  0  3  0  0  0           0  0  0
   -2.7375  -16.8208    0.0000 C   0  0  0  0  0  0           0  0  0
   -2.0255  -17.2292    0.0000 C   0  0  0  0  0  0           0  0  0
   -1.3135  -16.8208    0.0000 N   0  0  3  0  0  0           0  0  0
   -1.3135  -15.9958    0.0000 C   0  0  0  0  0  0           0  0  0
   -2.0255  -15.5792    0.0000 C   0  0  0  0  0  0           0  0  0
   -3.4532  -15.5854    0.0000 C   0  0  0  0  0  0           0  0  0
   -4.1664  -16.0000    0.0000 C   0  0  0  0  0  0           0  0  0
   -4.9208  -15.6668    0.0000 C   0  0  0  0  0  0           0  0  0
   -5.4711  -16.2815    0.0000 N   0  0  0  0  0  0           0  0  0
   -5.0564  -16.9948    0.0000 C   0  0  0  0  0  0           0  0  0
   -4.2500  -16.8208    0.0000 N   0  0  0  0  0  0           0  0  0
   -0.5996  -17.2344    0.0000 C   0  0  0  0  0  0           0  0  0
   -0.6008  -18.0594    0.0000 C   0  0  0  0  0  0           0  0  0
    0.1131  -18.4729    0.0000 C   0  0  0  0  0  0           0  0  0
    1.5430  -19.2966    0.0000 C   0  0  0  0  0  0           0  0  0
    2.2574  -19.7077    0.0000 C   0  0  0  0  0  0           0  0  0
    2.9721  -19.2938    0.0000 C   0  0  0  0  0  0           0  0  0
    2.9679  -18.4645    0.0000 C   0  0  0  0  0  0           0  0  0
    2.2529  -18.0572    0.0000 C   0  0  0  0  0  0           0  0  0
    0.1155  -16.8229    0.0000 O   0  0  0  0  0  0           0  0  0
  4  5  1  0     0  0
  5  6  1  0     0  0
 11 12  1  0     0  0
 12 13  1  0     0  0
 13 14  2  0     0  0
 14 10  1  0     0  0
  6  7  1  0     0  0
  6 15  1  0     0  0
  7  8  1  0     0  0
 15 16  1  0     0  0
 16 17  1  0     0  0
 17  1  1  0     0  0
  3  9  1  0     0  0
  2 18  2  0     0  0
  1  2  1  0     0  0
 18 19  1  0     0  0
  9 10  1  0     0  0
 19 20  2  0     0  0
 10 11  2  0     0  0
 20 21  1  0     0  0
  3  4  1  0     0  0
 21 22  2  0     0  0
 22  2  1  0     0  0
  3  8  1  0     0  0
 15 23  2  0     0  0
M  END