
  SciTegic01161211252D

 42 47  0  0  0  0            999 V2000
   20.6532   -2.3037    0.0000 C   0  0
   15.6971   -0.9151    0.0000 N   0  0
   17.1232   -0.9222    0.0000 C   0  0  1  0  0  0
   16.4120   -0.5050    0.0000 C   0  0
   14.3235    0.7777    0.0000 C   0  0
   15.0241    0.3418    0.0000 C   0  0  1  0  0  0
   15.0004   -0.4848    0.0000 C   0  0
   17.8579   -0.5665    0.0000 C   0  0
   18.5585   -0.9982    0.0000 N   0  0
   17.8773    0.2601    0.0000 O   0  0
   18.5305   -1.8212    0.0000 C   0  0
   19.2270   -2.2568    0.0000 C   0  0
   19.9534   -1.8654    0.0000 N   0  0
   19.9831   -1.0378    0.0000 C   0  0
   19.2782   -0.6017    0.0000 C   0  0
   15.7482    0.7368    0.0000 C   0  0
   13.5994    0.3827    0.0000 C   0  0
   12.8982    0.8208    0.0000 C   0  0
   12.8561   -0.8327    0.0000 C   0  0
   13.5810   -0.4402    0.0000 C   0  0
   15.6929   -1.7421    0.0000 C   0  0
   17.1190   -1.7493    0.0000 C   0  0  2  0  0  0
   16.4010   -2.1604    0.0000 C   0  0  1  0  0  0
   16.3965   -2.9818    0.0000 C   0  0
   17.1083   -3.3981    0.0000 C   0  0
   17.8264   -2.9913    0.0000 C   0  0
   17.8325   -2.1637    0.0000 C   0  0
   12.1535   -0.4071    0.0000 C   0  0
   12.1739    0.4247    0.0000 C   0  0
   11.3891    0.7011    0.0000 N   0  0
   10.8836    0.0401    0.0000 C   0  0
   11.3562   -0.6447    0.0000 O   0  0
   20.6202   -3.1264    0.0000 C   0  0
   21.3191   -3.5644    0.0000 C   0  0
   22.0494   -3.1776    0.0000 C   0  0
   22.0765   -2.3481    0.0000 C   0  0
   21.3770   -1.9137    0.0000 C   0  0
   22.8040   -1.9588    0.0000 F   0  0
   22.7492   -3.6145    0.0000 F   0  0
   17.1188   -0.0958    0.0000 H   0  0
   17.8313   -1.3294    0.0000 H   0  0
   15.8102   -2.7420    0.0000 H   0  0
 11 12  1  0
 12 13  1  0
 22 23  1  0
 13 14  1  0
 14 15  1  0
 22  3  1  0
  3  8  1  0
  3  4  1  0
 22 27  1  0
 23 24  1  0
 24 25  1  0
 25 26  1  0
 26 27  1  0
  8  9  1  0
  2 21  1  0
  8 10  2  0
 28 29  2  0
  9 11  1  0
  6 16  1  6
  5 17  1  0
  5  6  1  0
 29 30  1  0
 30 31  2  0
 31 32  1  0
 32 28  1  0
 13  1  1  0
 17 18  2  0
  1 33  2  0
 18 29  1  0
 33 34  1  0
  2  4  1  0
 34 35  2  0
 28 19  1  0
 35 36  1  0
  6  7  1  0
 36 37  2  0
 37  1  1  0
 19 20  2  0
 36 38  1  0
 20 17  1  0
 35 39  1  0
  7  2  1  0
  3 40  1  6
  9 15  1  0
 22 41  1  6
 23 21  1  0
 23 42  1  6
M  END