
  SciTegic09291412002D

 18 19  0  0  0  0            999 V2000
   12.5682   -5.5328    0.0000 C   0  0
   12.5671   -6.3601    0.0000 C   0  0
   13.2818   -6.7729    0.0000 C   0  0
   13.2800   -5.1201    0.0000 C   0  0
   13.9954   -5.5291    0.0000 C   0  0
   14.0003   -6.3555    0.0000 C   0  0
   14.7876   -6.6063    0.0000 N   0  0
   15.2694   -5.9349    0.0000 C   0  0
   14.7798   -5.2693    0.0000 N   0  0
   13.2776   -4.2952    0.0000 O   0  0
   13.9908   -3.8806    0.0000 C   0  0
   13.9882   -3.0556    0.0000 C   0  0
   14.7014   -2.6411    0.0000 C   0  0
   13.2726   -2.6453    0.0000 O   0  0
   15.4171   -3.0514    0.0000 N   0  0
   16.1302   -2.6367    0.0000 C   0  0
   16.8459   -3.0471    0.0000 C   0  0
   16.1278   -1.8119    0.0000 C   0  0
  1  2  2  0
  2  3  1  0
  3  6  2  0
  5  4  2  0
  4  1  1  0
  5  6  1  0
  6  7  1  0
  7  8  1  0
  8  9  2  0
  9  5  1  0
  4 10  1  0
 10 11  1  0
 11 12  1  0
 12 13  1  0
 12 14  1  0
 13 15  1  0
 15 16  1  0
 16 17  1  0
 16 18  1  0
M  END