
  CDK    9/16/09,10:8

 32 34  0  0  0  0  0  0  0  0999 V2000
    2.0583  -22.7500    0.0000 C   0  0  0  0  0  0  0  0  0  0  0  0
    2.0583  -23.5750    0.0000 C   0  0  0  0  0  0  0  0  0  0  0  0
    2.7704  -23.9833    0.0000 C   0  0  0  0  0  0  0  0  0  0  0  0
    2.7704  -22.3333    0.0000 C   0  0  0  0  0  0  0  0  0  0  0  0
    3.4824  -22.7500    0.0000 C   0  0  0  0  0  0  0  0  0  0  0  0
    3.4789  -23.5750    0.0000 C   0  0  0  0  0  0  0  0  0  0  0  0
    4.1876  -23.9882    0.0000 C   0  0  0  0  0  0  0  0  0  0  0  0
    4.9044  -23.5810    0.0000 C   0  0  0  0  0  0  0  0  0  0  0  0
    4.1830  -24.8132    0.0000 O   0  0  0  0  0  0  0  0  0  0  0  0
    4.1946  -22.3382    0.0000 C   0  0  0  0  0  0  0  0  0  0  0  0
    4.9103  -22.7570    0.0000 C   0  0  0  0  0  0  0  0  0  0  0  0
    5.6241  -19.8497    0.0000 C   0  0  0  0  0  0  0  0  0  0  0  0
    4.9094  -20.2688    0.0000 C   0  0  0  0  0  0  0  0  0  0  0  0
    4.9182  -21.1015    0.0000 C   0  0  0  0  0  0  0  0  0  0  0  0
    4.1954  -21.5114    0.0000 C   0  0  0  0  0  0  0  0  0  0  0  0
    4.1875  -23.1625    0.0000 H   0  0  0  0  0  0  0  0  0  0  0  0
    4.1916  -19.8621    0.0000 C   0  0  0  0  0  0  0  0  0  0  0  0
    4.1793  -19.0328    0.0000 C   0  0  0  0  0  0  0  0  0  0  0  0
    4.8888  -18.6118    0.0000 C   0  0  0  0  0  0  0  0  0  0  0  0
    5.6429  -18.9389    0.0000 O   0  0  0  0  0  0  0  0  0  0  0  0
    6.1833  -18.3168    0.0000 C   0  0  0  0  0  0  0  0  0  0  0  0
    5.7643  -17.6084    0.0000 C   0  0  0  0  0  0  0  0  0  0  0  0
    4.9634  -17.7919    0.0000 C   0  0  0  0  0  0  0  0  0  0  0  0
    7.0104  -18.3965    0.0000 O   0  0  0  0  0  0  0  0  0  0  0  0
    3.4750  -21.9250    0.0000 C   0  0  0  0  0  0  0  0  0  0  0  0
    4.3421  -17.2491    0.0000 C   0  0  0  0  0  0  0  0  0  0  0  0
    3.4708  -24.3958    0.0000 H   0  0  0  0  0  0  0  0  0  0  0  0
    2.9792  -24.7792    0.0000 C   0  0  0  0  0  0  0  0  0  0  0  0
    2.0500  -24.3917    0.0000 C   0  0  0  0  0  0  0  0  0  0  0  0
    5.3167  -22.0375    0.0000 C   0  0  0  0  0  0  0  0  0  0  0  0
    5.6208  -23.1667    0.0000 O   0  0  0  0  0  0  0  0  0  0  0  0
    1.3388  -23.9735    0.0000 O   0  0  0  0  0  0  0  0  0  0  0  0
  5 10  1  0  0  0  0 
 10 16  1  6  0  0  0 
  6  7  1  0  0  0  0 
 13 17  2  0  0  0  0 
  7  8  1  0  0  0  0 
 17 18  1  0  0  0  0 
  8 11  1  0  0  0  0 
 19 18  2  0  0  0  0 
 19 20  1  0  0  0  0 
  3  6  1  0  0  0  0 
  7  9  1  6  0  0  0 
 10 11  1  0  0  0  0 
  5  4  1  0  0  0  0 
 20 21  1  0  0  0  0 
 21 22  1  0  0  0  0 
 22 23  2  0  0  0  0 
 23 19  1  0  0  0  0 
  5  6  1  0  0  0  0 
 21 24  2  0  0  0  0 
  5 25  1  1  0  0  0 
  1  2  1  0  0  0  0 
 23 26  1  0  0  0  0 
  1  4  1  0  0  0  0 
  6 27  1  6  0  0  0 
  2  3  1  0  0  0  0 
  3 28  1  1  0  0  0 
 10 15  1  0  0  0  0 
  3 29  1  0  0  0  0 
 12 13  1  0  0  0  0 
 11 30  1  0  0  0  0 
 13 14  1  0  0  0  0 
 11 31  1  6  0  0  0 
 14 15  1  0  0  0  0 
 29 32  2  0  0  0  0 
M  END