
  SciTegic05171617292D

 38 41  0  0  0  0            999 V2000
    3.6387   -0.8963    0.0000 C   0  0
    2.6003   -1.4977    0.0000 C   0  0
    1.2990   -0.7500    0.0000 C   0  0
    1.2990    0.7500    0.0000 C   0  0
    0.0000    1.5000    0.0000 C   0  0
   -1.2990    0.7500    0.0000 C   0  0
   -1.2990   -0.7500    0.0000 C   0  0
    0.0000   -1.5000    0.0000 C   0  0
   -0.0031   -3.0008    0.0000 N   0  0
   -1.3039   -3.7494    0.0000 C   0  0
   -1.3092   -5.2494    0.0000 N   0  0
   -2.6108   -5.9949    0.0000 C   0  0
   -3.9072   -5.2404    0.0000 C   0  0
   -3.9020   -3.7404    0.0000 C   0  0
   -5.1977   -2.9829    0.0000 C   0  0
   -5.1903   -1.4821    0.0000 C   0  0
   -6.4859   -0.7245    0.0000 C   0  0
   -7.7877   -1.4700    0.0000 C   0  0
   -9.0841   -0.7154    0.0000 C   0  0
   -9.0789    0.7846    0.0000 C   0  0
   -7.7772    1.5300    0.0000 C   0  0
   -6.4808    0.7755    0.0000 C   0  0
   -5.1800    1.5241    0.0000 C   0  0
   -5.1770    3.0249    0.0000 C   0  0
   -6.2152    3.6267    0.0000 N   0  0
   -4.1369    3.6235    0.0000 O   0  0
   -2.6004   -2.9949    0.0000 N   0  0
   -5.2096   -5.9864    0.0000 C   0  0
   -5.2145   -7.1863    0.0000 F   0  0
   -6.2465   -5.3824    0.0000 F   0  0
   -6.2512   -6.5823    0.0000 F   0  0
    0.0000    3.0008    0.0000 C   0  0
    1.2978    3.7529    0.0000 C   0  0
    1.2954    5.2529    0.0000 C   0  0
   -0.0048    6.0009    0.0000 N   0  0
   -0.0067    7.2009    0.0000 C   0  0
   -1.3026    5.2488    0.0000 C   0  0
   -1.3002    3.7488    0.0000 C   0  0
  1  2  1  0
  2  3  1  0
  3  4  2  0
  4  5  1  0
  5  6  2  0
  6  7  1  0
  7  8  2  0
  3  8  1  0
  8  9  1  0
  9 10  1  0
 10 11  2  0
 11 12  1  0
 12 13  2  0
 13 14  1  0
 14 15  1  0
 15 16  1  0
 16 17  1  0
 17 18  2  0
 18 19  1  0
 19 20  2  0
 20 21  1  0
 21 22  2  0
 17 22  1  0
 22 23  1  0
 23 24  1  0
 24 25  1  0
 24 26  2  0
 14 27  2  0
 10 27  1  0
 13 28  1  0
 28 29  1  0
 28 30  1  0
 28 31  1  0
  5 32  1  0
 32 33  1  0
 33 34  1  0
 34 35  1  0
 35 36  1  0
 35 37  1  0
 37 38  1  0
 32 38  1  0
M  END