
          11280715222D 1   1.00000     0.00000     0

 20 22  0     0  0            999 V2000
   -1.8712  -17.7437    0.0000 C   0  0  0  0  0  0           0  0  0
   -1.8723  -18.5706    0.0000 C   0  0  0  0  0  0           0  0  0
   -1.1579  -18.9832    0.0000 C   0  0  0  0  0  0           0  0  0
   -1.1597  -17.3312    0.0000 C   0  0  0  0  0  0           0  0  0
   -0.4447  -17.7401    0.0000 C   0  0  0  0  0  0           0  0  0
   -0.4398  -18.5706    0.0000 C   0  0  0  0  0  0           0  0  0
    0.3515  -18.8226    0.0000 N   0  0  0  0  0  0           0  0  0
    0.8358  -18.1478    0.0000 C   0  0  0  0  0  0           0  0  0
    0.3436  -17.4788    0.0000 N   0  0  0  0  0  0           0  0  0
    1.6603  -18.1429    0.0000 C   0  0  0  0  0  0           0  0  0
    2.0768  -18.8546    0.0000 O   0  0  0  0  0  0           0  0  0
    2.0684  -17.4265    0.0000 N   0  0  3  0  0  0           0  0  0
    2.8901  -17.4268    0.0000 C   0  0  0  0  0  0           0  0  0
    3.2981  -16.7144    0.0000 C   0  0  0  0  0  0           0  0  0
    2.8851  -16.0004    0.0000 N   0  0  3  0  0  0           0  0  0
    2.0596  -16.0033    0.0000 C   0  0  0  0  0  0           0  0  0
    1.6471  -16.7202    0.0000 C   0  0  0  0  0  0           0  0  0
    3.2959  -15.2854    0.0000 C   0  0  0  0  0  0           0  0  0
   -1.1622  -16.5067    0.0000 F   0  0  0  0  0  0           0  0  0
   -2.5853  -17.3316    0.0000 F   0  0  0  0  0  0           0  0  0
  4  1  2  0     0  0
  8 10  1  0     0  0
  5  6  2  0     0  0
 10 11  2  0     0  0
 10 12  1  0     0  0
 12 13  1  0     0  0
  2  3  2  0     0  0
  3  6  1  0     0  0
  1  2  1  0     0  0
  5  4  1  0     0  0
  6  7  1  0     0  0
 12 17  1  0     0  0
 13 14  1  0     0  0
 14 15  1  0     0  0
 15 16  1  0     0  0
 16 17  1  0     0  0
  7  8  1  0     0  0
 15 18  1  0     0  0
  8  9  2  0     0  0
  4 19  1  0     0  0
  9  5  1  0     0  0
  1 20  1  0     0  0
M  END