
  SciTegic12231509382D

 22 22  0  0  0  0            999 V2000
   30.0505   -1.9817    0.0000 C   0  0
   30.7665   -2.3914    0.0000 C   0  0
   31.4794   -1.9763    0.0000 C   0  0
   32.1954   -2.3861    0.0000 C   0  0
   32.9083   -1.9709    0.0000 C   0  0
   33.6243   -2.3807    0.0000 C   0  0
   29.3375   -2.3969    0.0000 N   0  3
   28.6216   -1.9870    0.0000 C   0  0
   27.9086   -2.4022    0.0000 C   0  0
   29.3407   -3.2218    0.0000 C   0  0
   30.0566   -3.6317    0.0000 C   0  0
   34.3372   -1.9655    0.0000 C   0  0
   27.1958   -2.8174    0.0000 C   0  0
   26.4828   -3.2326    0.0000 C   0  0
   25.7700   -2.8220    0.0000 C   0  0
   25.0575   -3.2364    0.0000 C   0  0
   25.0603   -4.0623    0.0000 C   0  0
   25.7813   -4.4719    0.0000 C   0  0
   26.4907   -4.0551    0.0000 C   0  0
   29.3333   -1.5709    0.0000 C   0  0
   30.0456   -1.1546    0.0000 C   0  0
   24.3480   -4.4785    0.0000 Cl  0  0
  1  2  1  0
  2  3  1  0
  3  4  1  0
  4  5  1  0
  5  6  1  0
  1  7  1  0
  7  8  1  0
  8  9  1  0
  7 10  1  0
 10 11  1  0
  6 12  1  0
  9 13  3  0
 13 14  1  0
 14 15  2  0
 15 16  1  0
 16 17  2  0
 17 18  1  0
 18 19  2  0
 19 14  1  0
  7 20  1  0
 20 21  1  0
 17 22  1  0
M  CHG  1   7   1
M  END