
  Mrv0541 09091311382D          

 21 23  0  0  0  0            999 V2000
    7.1208   -1.6833    0.0000 C   0  0  0  0  0  0  0  0  0  0  0  0
    7.1208   -2.5083    0.0000 C   0  0  0  0  0  0  0  0  0  0  0  0
    7.8329   -2.9167    0.0000 C   0  0  0  0  0  0  0  0  0  0  0  0
    7.8329   -1.2667    0.0000 C   0  0  0  0  0  0  0  0  0  0  0  0
    8.5449   -1.6833    0.0000 C   0  0  0  0  0  0  0  0  0  0  0  0
    8.5448   -2.5094    0.0000 C   0  0  0  0  0  0  0  0  0  0  0  0
    9.3304   -2.7647    0.0000 S   0  0  0  0  0  0  0  0  0  0  0  0
    9.8160   -2.0964    0.0000 C   0  0  0  0  0  0  0  0  0  0  0  0
    9.3305   -1.4282    0.0000 C   0  0  0  0  0  0  0  0  0  0  0  0
   10.6410   -2.0964    0.0000 N   0  0  0  0  0  0  0  0  0  0  0  0
    9.5854   -0.6436    0.0000 C   0  0  0  0  0  0  0  0  0  0  0  0
   10.3924   -0.4721    0.0000 O   0  0  0  0  0  0  0  0  0  0  0  0
    9.0334   -0.0305    0.0000 C   0  0  0  0  0  0  0  0  0  0  0  0
    9.2911    0.7531    0.0000 C   0  0  0  0  0  0  0  0  0  0  0  0
    8.7398    1.3658    0.0000 C   0  0  0  0  0  0  0  0  0  0  0  0
    7.9319    1.1946    0.0000 C   0  0  0  0  0  0  0  0  0  0  0  0
    7.6781    0.4051    0.0000 C   0  0  0  0  0  0  0  0  0  0  0  0
    8.2311   -0.2043    0.0000 C   0  0  0  0  0  0  0  0  0  0  0  0
    7.3791    1.8070    0.0000 Cl  0  0  0  0  0  0  0  0  0  0  0  0
    6.8718    0.2307    0.0000 H   0  0  0  0  0  0  0  0  0  0  0  0
    8.9952    2.1503    0.0000 H   0  0  0  0  0  0  0  0  0  0  0  0
  8 10  1  0  0  0  0
  5  6  2  0  0  0  0
  9 11  1  0  0  0  0
 11 12  2  0  0  0  0
  1  2  1  0  0  0  0
 11 13  1  0  0  0  0
  1  4  1  0  0  0  0
 13 14  2  0  0  0  0
  2  3  1  0  0  0  0
 14 15  1  0  0  0  0
  3  6  1  0  0  0  0
 15 16  2  0  0  0  0
  6  7  1  0  0  0  0
 16 17  1  0  0  0  0
  7  8  1  0  0  0  0
 17 18  2  0  0  0  0
 18 13  1  0  0  0  0
  8  9  2  0  0  0  0
 16 19  1  0  0  0  0
  9  5  1  0  0  0  0
 17 20  1  0  0  0  0
  5  4  1  0  0  0  0
 15 21  1  0  0  0  0
M  ISO  2  20   3  21   3
M  END