
  SciTegic06141115222D

 21 22  0  0  0  0            999 V2000
    4.3867   -2.9386    0.0000 S   0  3
    5.2317   -3.5875    0.0000 N   0  0
    3.6475   -3.5485    0.0000 N   0  0
    4.8257   -4.4316    0.0000 C   0  0
    4.0662   -4.4508    0.0000 C   0  0
    7.0035   -9.3636    0.0000 C   0  0
    6.9648  -10.1245    0.0000 N   0  0
    6.3555   -8.7837    0.0000 N   0  0
    6.9945  -10.8837    0.0000 C   0  0
    7.7384   -8.7908    0.0000 S   0  0
    6.6437   -8.0745    0.0000 C   0  0
    7.4145   -8.0866    0.0000 C   0  0
    4.3965   -1.8671    0.0000 O   0  5
    5.2325   -5.0757    0.0000 N   0  0
    3.7135   -5.1142    0.0000 N   0  0
    7.6684  -11.2361    0.0000 N   0  0
    6.3449  -11.2802    0.0000 N   0  0
    5.9504   -6.9574    0.0000 S   0  0
    6.6191   -7.3151    0.0000 C   0  0
    5.2570   -5.8350    0.0000 C   0  0
    5.9259   -6.1981    0.0000 C   0  0
  2  1  1  0
  3  1  1  0
  4  2  2  0
  5  3  2  0
  6  8  2  0
  7  6  1  0
  8 11  1  0
  9  7  1  0
 10 12  1  0
 11 19  1  0
 12 11  2  0
 13  1  1  0
 14  4  1  0
 15  5  1  0
 16  9  2  0
 17  9  1  0
 18 21  1  0
 19 18  1  0
 20 14  1  0
 21 20  1  0
  4  5  1  0
 10  6  1  0
M  CHG  2   1   1  13  -1
M  END