
          11280715362D 1   1.00000     0.00000     0

 18 20  0     0  0            999 V2000
    5.8875   -6.4792    0.0000 C   0  0  3  0  0  0           0  0  0
    6.4042   -6.7792    0.0000 C   0  0  0  0  0  0           0  0  0
    5.8875   -7.6792    0.0000 O   0  0  0  0  0  0           0  0  0
    6.4042   -7.3792    0.0000 C   0  0  0  0  0  0           0  0  0
    5.3625   -7.3875    0.0000 C   0  0  3  0  0  0           0  0  0
    5.3625   -6.7792    0.0000 C   0  0  3  0  0  0           0  0  0
    4.8375   -6.4792    0.0000 C   0  0  0  0  0  0           0  0  0
    5.8875   -5.8750    0.0000 C   0  0  0  0  0  0           0  0  0
    4.8375   -5.8750    0.0000 C   0  0  0  0  0  0           0  0  0
    5.3750   -5.5750    0.0000 C   0  0  0  0  0  0           0  0  0
    6.9250   -6.4792    0.0000 C   0  0  0  0  0  0           0  0  0
    6.9250   -7.6792    0.0000 C   0  0  0  0  0  0           0  0  0
    6.9125   -5.8792    0.0000 O   0  0  0  0  0  0           0  0  0
    5.1625   -7.9542    0.0000 C   0  0  0  0  0  0           0  0  0
    4.8000   -7.1875    0.0000 C   0  0  0  0  0  0           0  0  0
    7.4500   -7.3792    0.0000 C   0  0  0  0  0  0           0  0  0
    7.4500   -6.7792    0.0000 C   0  0  0  0  0  0           0  0  0
    5.3875   -4.9750    0.0000 C   0  0  0  0  0  0           0  0  0
  2  1  1  0     0  0
  3  5  1  0     0  0
  4  2  1  0     0  0
  5  6  1  0     0  0
  6  1  1  0     0  0
  7  6  1  0     0  0
  8  1  1  0     0  0
  9 10  2  0     0  0
 10  8  1  0     0  0
 11  2  2  0     0  0
 12  4  2  0     0  0
 13 11  1  0     0  0
 14  5  1  0     0  0
 15  5  1  0     0  0
 16 17  2  0     0  0
 17 11  1  0     0  0
 18 10  1  0     0  0
  3  4  1  0     0  0
  9  7  1  0     0  0
 16 12  1  0     0  0
M  END