
  SciTegic10311316262D

 29 31  0  0  0  0            999 V2000
    1.2138  -18.6415    0.0000 C   0  0
    1.2127  -19.4689    0.0000 C   0  0
    1.9275  -19.8818    0.0000 C   0  0
    2.6439  -19.4684    0.0000 C   0  0
    2.6411  -18.6379    0.0000 C   0  0
    1.9257  -18.2288    0.0000 C   0  0
    3.3540  -18.2227    0.0000 N   0  0
    4.0700  -18.6325    0.0000 C   0  0
    4.7829  -18.2173    0.0000 C   0  0
    4.0731  -19.4575    0.0000 O   0  0
    5.4989  -18.6271    0.0000 S   0  0
    6.2118  -18.2119    0.0000 C   0  0
    6.9277  -18.6249    0.0000 N   0  0
    7.6385  -18.2132    0.0000 C   0  0
    7.6397  -17.3879    0.0000 C   0  0
    6.9238  -16.9759    0.0000 C   0  0
    6.2068  -17.3892    0.0000 N   0  0
    6.9235  -16.1509    0.0000 O   0  0
    8.3548  -16.9797    0.0000 C   0  0
    9.0693  -16.5672    0.0000 N   0  0
    8.3513  -18.6249    0.0000 C   0  0
    8.3500  -19.4510    0.0000 C   0  0
    9.0636  -19.8634    0.0000 C   0  0
    9.7791  -19.4509    0.0000 C   0  0
    9.7764  -18.6216    0.0000 C   0  0
    9.0622  -18.2129    0.0000 C   0  0
   10.4941  -19.8624    0.0000 Cl  0  0
    1.9232  -17.4038    0.0000 C   0  0
    2.6364  -16.9891    0.0000 C   0  0
  1  2  2  0
  2  3  1  0
  3  4  2  0
  4  5  1  0
  5  6  2  0
  6  1  1  0
  5  7  1  0
  7  8  1  0
  8  9  1  0
  8 10  2  0
  9 11  1  0
 11 12  1  0
 12 13  2  0
 12 17  1  0
 13 14  1  0
 14 15  2  0
 15 16  1  0
 16 17  1  0
 16 18  2  0
 19 20  3  0
 15 19  1  0
 21 22  2  0
 22 23  1  0
 23 24  2  0
 24 25  1  0
 25 26  2  0
 26 21  1  0
 14 21  1  0
 24 27  1  0
  6 28  1  0
 28 29  1  0
M  END