
  Mrv0541 04051115152D          

 18 19  0  0  0  0            999 V2000
   -0.4016   -0.2611    0.0000 C   0  0  0  0  0  0  0  0  0  0  0  0
    0.3129   -0.6736    0.0000 C   0  0  0  0  0  0  0  0  0  0  0  0
    0.3129   -1.4986    0.0000 C   0  0  0  0  0  0  0  0  0  0  0  0
   -0.4016   -1.9111    0.0000 C   0  0  0  0  0  0  0  0  0  0  0  0
   -1.1161   -1.4986    0.0000 C   0  0  0  0  0  0  0  0  0  0  0  0
   -1.1161   -0.6736    0.0000 C   0  0  0  0  0  0  0  0  0  0  0  0
   -0.4016    0.5639    0.0000 O   0  0  0  0  0  0  0  0  0  0  0  0
    0.3129    0.9764    0.0000 C   0  0  0  0  0  0  0  0  0  0  0  0
    0.3129    1.8014    0.0000 C   0  0  0  0  0  0  0  0  0  0  0  0
    1.0273    2.2139    0.0000 C   0  0  0  0  0  0  0  0  0  0  0  0
    1.7418    1.8014    0.0000 C   0  0  0  0  0  0  0  0  0  0  0  0
    1.7418    0.9764    0.0000 C   0  0  0  0  0  0  0  0  0  0  0  0
    1.0273    0.5639    0.0000 C   0  0  0  0  0  0  0  0  0  0  0  0
   -0.4016   -2.7361    0.0000 C   0  0  0  0  0  0  0  0  0  0  0  0
   -1.1161   -3.1486    0.0000 O   0  0  0  0  0  0  0  0  0  0  0  0
    2.4563    2.2139    0.0000 Cl  0  0  0  0  0  0  0  0  0  0  0  0
   -0.4016    2.2139    0.0000 Cl  0  0  0  0  0  0  0  0  0  0  0  0
    1.0273   -0.2611    0.0000 O   0  0  0  0  0  0  0  0  0  0  0  0
  1  2  2  0  0  0  0
  1  6  1  0  0  0  0
  1  7  1  0  0  0  0
  2  3  1  0  0  0  0
  2 18  1  0  0  0  0
  3  4  2  0  0  0  0
  4  5  1  0  0  0  0
 14  4  1  0  0  0  0
  5  6  2  0  0  0  0
  8  7  1  0  0  0  0
  8  9  2  0  0  0  0
 13  8  1  0  0  0  0
 10  9  1  0  0  0  0
  9 17  1  0  0  0  0
 10 11  2  0  0  0  0
 11 12  1  0  0  0  0
 11 16  1  0  0  0  0
 12 13  2  0  0  0  0
 14 15  1  0  0  0  0
M  END