
          11280714552D 1   1.00000     0.00000     0

 32 36  0     0  0            999 V2000
   -0.2958    1.1125    0.0000 N   0  0  3  0  0  0           0  0  0
    0.4917    1.3958    0.0000 C   0  0  0  0  0  0           0  0  0
   -0.3458    2.4583    0.0000 N   0  0  0  0  0  0           0  0  0
    0.4500    2.2208    0.0000 C   0  0  0  0  0  0           0  0  0
   -0.8000    1.7625    0.0000 C   0  0  0  0  0  0           0  0  0
    2.6167   -2.3375    0.0000 C   0  0  0  0  0  0           0  0  0
    3.6750   -1.5167    0.0000 N   0  0  0  0  0  0           0  0  0
    2.8500   -1.5417    0.0000 N   0  0  0  0  0  0           0  0  0
    3.9542   -2.2917    0.0000 N   0  0  0  0  0  0           0  0  0
    3.3000   -2.8000    0.0000 N   0  0  0  0  0  0           0  0  0
    1.8417   -2.6167    0.0000 C   0  0  0  0  0  0           0  0  0
    1.0167   -2.5917    0.0000 C   0  0  0  0  0  0           0  0  0
    1.1625    0.9125    0.0000 C   0  0  0  0  0  0           0  0  0
   -0.5208    0.3208    0.0000 C   0  0  0  0  0  0           0  0  0
    0.6292   -1.8625    0.0000 C   0  0  0  0  0  0           0  0  0
    1.0167    0.1000    0.0000 O   0  0  0  0  0  0           0  0  0
    1.0750   -1.1542    0.0000 C   0  0  0  0  0  0           0  0  0
   -0.1958   -1.8292    0.0000 C   0  0  0  0  0  0           0  0  0
   -0.1333   -0.4042    0.0000 C   0  0  0  0  0  0           0  0  0
    1.0667    2.7583    0.0000 C   0  0  0  0  0  0           0  0  0
   -1.6250    1.7333    0.0000 C   0  0  0  0  0  0           0  0  0
    0.6875   -0.4292    0.0000 C   0  0  0  0  0  0           0  0  0
   -0.5750   -1.1042    0.0000 C   0  0  0  0  0  0           0  0  0
    2.2292   -3.3417    0.0000 C   0  0  0  0  0  0           0  0  0
    0.5792   -3.2875    0.0000 C   0  0  0  0  0  0           0  0  0
    1.9542    1.1375    0.0000 C   0  0  0  0  0  0           0  0  0
   -2.0625    2.4333    0.0000 C   0  0  0  0  0  0           0  0  0
    1.8792    2.6208    0.0000 C   0  0  0  0  0  0           0  0  0
    0.9667   -4.0167    0.0000 C   0  0  0  0  0  0           0  0  0
    1.7917   -4.0417    0.0000 C   0  0  0  0  0  0           0  0  0
    2.2667    1.9000    0.0000 C   0  0  0  0  0  0           0  0  0
   -2.8875    2.3958    0.0000 C   0  0  0  0  0  0           0  0  0
  2  1  1  0     0  0
  3  5  2  0     0  0
  4  2  2  0     0  0
  5  1  1  0     0  0
  6 11  1  0     0  0
  7  8  2  0     0  0
  8  6  1  0     0  0
  9 10  1  0     0  0
 10  6  2  0     0  0
 11 12  2  0     0  0
 12 15  1  0     0  0
 13  2  1  0     0  0
 14  1  1  0     0  0
 15 18  2  0     0  0
 16 13  2  0     0  0
 17 22  2  0     0  0
 18 23  1  0     0  0
 19 14  1  0     0  0
 20  4  1  0     0  0
 21  5  1  0     0  0
 22 19  1  0     0  0
 23 19  2  0     0  0
 24 11  1  0     0  0
 25 12  1  0     0  0
 26 13  1  0     0  0
 27 21  1  0     0  0
 28 20  1  0     0  0
 29 25  2  0     0  0
 30 29  1  0     0  0
 31 26  1  0     0  0
 32 27  1  0     0  0
  4  3  1  0     0  0
 15 17  1  0     0  0
 28 31  1  0     0  0
 24 30  2  0     0  0
  9  7  1  0     0  0
M  END