
          08180812472D 1   1.00000     0.00000     0

 28 31  0     1  0            999 V2000
    5.0583   -4.0042    0.0000 C   0  0  3  0  0  0           0  0  0
    4.3417   -3.5917    0.0000 C   0  0  0  0  0  0           0  0  0
    3.6301   -4.0038    0.0000 C   0  0  0  0  0  0           0  0  0
    3.6289   -4.8301    0.0000 C   0  0  0  0  0  0           0  0  0
    4.3455   -5.2426    0.0000 C   0  0  0  0  0  0           0  0  0
    5.0634   -4.8288    0.0000 C   0  0  0  0  0  0           0  0  0
    7.2042   -2.3250    0.0000 O   0  0  0  0  0  0           0  0  0
    6.3792   -2.3208    0.0000 C   0  0  0  0  0  0           0  0  0
    7.6154   -3.0376    0.0000 C   0  0  2  0  0  0           0  0  0
    7.1919   -3.7514    0.0000 C   0  0  1  0  0  0           0  0  0
    7.7398   -4.3748    0.0000 O   0  0  0  0  0  0           0  0  0
    8.5021   -4.0463    0.0000 C   0  0  3  0  0  0           0  0  0
    8.4251   -3.2199    0.0000 O   0  0  0  0  0  0           0  0  0
    8.4958   -4.8708    0.0000 C   0  0  0  0  0  0           0  0  0
    9.3250   -4.0458    0.0000 C   0  0  0  0  0  0           0  0  0
    8.0208   -2.3208    0.0000 C   0  0  0  0  0  0           0  0  0
    8.8458   -2.3136    0.0000 N   0  0  0  0  0  0           0  0  0
    9.2520   -1.5955    0.0000 S   0  0  3  0  0  0           0  0  0
    9.6583   -0.8750    0.0000 N   0  0  0  0  0  0           0  0  0
    9.9703   -2.0012    0.0000 O   0  0  0  0  0  0           0  0  0
    8.5326   -1.1917    0.0000 O   0  0  0  0  0  0           0  0  0
    6.7750   -4.4625    0.0000 H   0  0  0  0  0  0           0  0  0
    6.3720   -3.7464    0.0000 C   0  0  1  0  0  0           0  0  0
    5.9686   -3.0259    0.0000 C   0  0  2  0  0  0           0  0  0
    5.1586   -3.1868    0.0000 O   0  0  0  0  0  0           0  0  0
    5.8113   -4.3527    0.0000 O   0  0  0  0  0  0           0  0  0
    5.7500   -2.2250    0.0000 H   0  0  0  0  0  0           0  0  0
    6.7792   -3.0292    0.0000 H   0  0  0  0  0  0           0  0  0
 13  9  1  0     0  0
  7  8  1  0     0  0
 12 14  1  0     0  0
 12 15  1  0     0  0
  1  2  1  0     0  0
  9 16  1  6     0  0
  7  9  1  0     0  0
 16 17  1  0     0  0
  8 24  1  0     0  0
 17 18  1  0     0  0
 23 10  1  0     0  0
 18 19  1  0     0  0
  9 10  1  0     0  0
 18 20  2  0     0  0
  1  6  1  0     0  0
 18 21  2  0     0  0
  2  3  1  0     0  0
 10 22  1  6     0  0
 23 24  1  0     0  0
  3  4  1  0     0  0
  4  5  1  0     0  0
  5  6  1  0     0  0
 10 11  1  0     0  0
 24 25  1  0     0  0
 25  1  1  0     0  0
  1 26  1  0     0  0
 26 23  1  0     0  0
 11 12  1  0     0  0
 24 27  1  1     0  0
 12 13  1  0     0  0
 23 28  1  1     0  0
M  END