
  CDK    9/16/09,9:40

 32 35  0  0  0  0  0  0  0  0999 V2000
    4.5297   -1.5723    0.0000 C   0  0  0  0  0  0  0  0  0  0  0  0
    5.3164   -1.8175    0.0000 C   0  0  0  0  0  0  0  0  0  0  0  0
    3.9238   -2.1317    0.0000 O   0  0  0  0  0  0  0  0  0  0  0  0
    4.3487   -0.7677    0.0000 O   0  0  0  0  0  0  0  0  0  0  0  0
    5.9223   -1.2579    0.0000 O   0  0  0  0  0  0  0  0  0  0  0  0
    5.4867   -3.9477    0.0000 N   0  0  0  0  0  0  0  0  0  0  0  0
    5.0303   -3.2589    0.0000 C   0  0  0  0  0  0  0  0  0  0  0  0
    5.5406   -2.6131    0.0000 C   0  0  0  0  0  0  0  0  0  0  0  0
    6.3138   -2.8954    0.0000 C   0  0  0  0  0  0  0  0  0  0  0  0
    7.0443   -2.5120    0.0000 C   0  0  0  0  0  0  0  0  0  0  0  0
    7.7414   -2.9526    0.0000 C   0  0  0  0  0  0  0  0  0  0  0  0
    7.7101   -3.7807    0.0000 C   0  0  0  0  0  0  0  0  0  0  0  0
    6.9797   -4.1641    0.0000 C   0  0  0  0  0  0  0  0  0  0  0  0
    6.2804   -3.7195    0.0000 C   0  0  0  0  0  0  0  0  0  0  0  0
    8.4719   -2.5691    0.0000 C   0  0  0  0  0  0  0  0  0  0  0  0
    8.5052   -1.7451    0.0000 C   0  0  0  0  0  0  0  0  0  0  0  0
    9.2358   -1.3617    0.0000 C   0  0  0  0  0  0  0  0  0  0  0  0
    9.9329   -1.8023    0.0000 C   0  0  0  0  0  0  0  0  0  0  0  0
    9.9017   -2.6304    0.0000 C   0  0  0  0  0  0  0  0  0  0  0  0
    9.1712   -3.0138    0.0000 C   0  0  0  0  0  0  0  0  0  0  0  0
   10.6634   -1.4188    0.0000 O   0  0  0  0  0  0  0  0  0  0  0  0
   11.3626   -1.8635    0.0000 C   0  0  0  0  0  0  0  0  0  0  0  0
   10.9221   -2.5606    0.0000 F   0  0  0  0  0  0  0  0  0  0  0  0
   11.8033   -1.1663    0.0000 F   0  0  0  0  0  0  0  0  0  0  0  0
   12.0598   -2.3041    0.0000 F   0  0  0  0  0  0  0  0  0  0  0  0
    5.1036   -4.6766    0.0000 C   0  0  0  0  0  0  0  0  0  0  0  0
    4.2786   -4.7123    0.0000 C   0  0  0  0  0  0  0  0  0  0  0  0
    3.8971   -5.4454    0.0000 C   0  0  0  0  0  0  0  0  0  0  0  0
    3.0765   -5.4794    0.0000 C   0  0  0  0  0  0  0  0  0  0  0  0
    2.6288   -4.7833    0.0000 C   0  0  0  0  0  0  0  0  0  0  0  0
    3.0120   -4.0544    0.0000 C   0  0  0  0  0  0  0  0  0  0  0  0
    3.8369   -4.0188    0.0000 C   0  0  0  0  0  0  0  0  0  0  0  0
  1  2  1  0  0  0  0 
  1  3  2  0  0  0  0 
  1  4  1  0  0  0  0 
  2  5  2  0  0  0  0 
  6  7  1  0  0  0  0 
  7  8  2  0  0  0  0 
  8  9  1  0  0  0  0 
  9 10  1  0  0  0  0 
 10 11  2  0  0  0  0 
 11 12  1  0  0  0  0 
 12 13  2  0  0  0  0 
 13 14  1  0  0  0  0 
  6 14  1  0  0  0  0 
  9 14  2  0  0  0  0 
 15 16  1  0  0  0  0 
 16 17  2  0  0  0  0 
 17 18  1  0  0  0  0 
 18 19  2  0  0  0  0 
 19 20  1  0  0  0  0 
 15 20  2  0  0  0  0 
 21 22  1  0  0  0  0 
 22 23  1  0  0  0  0 
 22 24  1  0  0  0  0 
 22 25  1  0  0  0  0 
 18 21  1  0  0  0  0 
 11 15  1  0  0  0  0 
 26 27  1  0  0  0  0 
 27 28  1  0  0  0  0 
 28 29  2  0  0  0  0 
 29 30  1  0  0  0  0 
 30 31  2  0  0  0  0 
 31 32  1  0  0  0  0 
 27 32  2  0  0  0  0 
  6 26  1  0  0  0  0 
  2  8  1  0  0  0  0 
M  END