
  CDK    7/28/10,10:58

 43 44  0  0  0  0  0  0  0  0999 V2000
    3.3042   -2.1917    0.0000 C   0  0  0  0  0  0  0  0  0  0  0  0
    2.5875   -1.7792    0.0000 C   0  0  0  0  0  0  0  0  0  0  0  0
    6.9875   -6.5792    0.0000 N   0  0  0  0  0  0  0  0  0  0  0  0
    6.1792   -2.1917    0.0000 C   0  0  0  0  0  0  0  0  0  0  0  0
    5.4625   -1.7792    0.0000 C   0  0  0  0  0  0  0  0  0  0  0  0
    4.0250   -1.7792    0.0000 C   0  0  0  0  0  0  0  0  0  0  0  0
    1.8667   -2.1917    0.0000 N   0  0  0  0  0  0  0  0  0  0  0  0
    6.8917   -1.7792    0.0000 N   0  0  0  0  0  0  0  0  0  0  0  0
    4.7375   -2.1917    0.0000 C   0  0  0  0  0  0  0  0  0  0  0  0
    1.1500   -1.7792    0.0000 C   0  0  0  0  0  0  0  0  0  0  0  0
    7.6125   -2.1917    0.0000 C   0  0  0  0  0  0  0  0  0  0  0  0
    6.1625   -6.5667    0.0000 C   0  0  0  0  0  0  0  0  0  0  0  0
    3.3042   -3.0167    0.0000 O   0  0  0  0  0  0  0  0  0  0  0  0
    5.7500   -5.8542    0.0000 C   0  0  0  0  0  0  0  0  0  0  0  0
    7.3917   -7.2917    0.0000 O   0  0  0  0  0  0  0  0  0  0  0  0
    4.9250   -5.8542    0.0000 C   0  0  0  0  0  0  0  0  0  0  0  0
    0.4292   -2.1917    0.0000 C   0  0  0  0  0  0  0  0  0  0  0  0
    8.3292   -1.7792    0.0000 C   0  0  0  0  0  0  0  0  0  0  0  0
    7.4042   -5.8667    0.0000 O   0  0  0  0  0  0  0  0  0  0  0  0
    2.5875   -0.9417    0.0000 O   0  0  0  0  0  0  0  0  0  0  0  0
    6.1792   -3.0167    0.0000 O   0  0  0  0  0  0  0  0  0  0  0  0
    4.5167   -5.1417    0.0000 C   0  0  0  0  0  0  0  0  0  0  0  0
    1.1500   -0.9417    0.0000 O   0  0  0  0  0  0  0  0  0  0  0  0
    7.6125   -3.0167    0.0000 O   0  0  0  0  0  0  0  0  0  0  0  0
    4.9292   -4.4292    0.0000 C   0  0  0  0  0  0  0  0  0  0  0  0
    3.7000   -5.1292    0.0000 C   0  0  0  0  0  0  0  0  0  0  0  0
    5.4625   -0.9417    0.0000 O   0  0  0  0  0  0  0  0  0  0  0  0
    4.0250   -0.9417    0.0000 O   0  0  0  0  0  0  0  0  0  0  0  0
    4.7375   -3.0167    0.0000 O   0  0  0  0  0  0  0  0  0  0  0  0
    3.7125   -3.7292    0.0000 C   0  0  0  0  0  0  0  0  0  0  0  0
    0.4292   -3.0167    0.0000 C   0  0  0  0  0  0  0  0  0  0  0  0
    8.3292   -0.9417    0.0000 C   0  0  0  0  0  0  0  0  0  0  0  0
    4.5167   -3.7292    0.0000 C   0  0  0  0  0  0  0  0  0  0  0  0
    3.2917   -4.4292    0.0000 C   0  0  0  0  0  0  0  0  0  0  0  0
    5.7375   -7.2792    0.0000 C   0  0  0  0  0  0  0  0  0  0  0  0
    4.5042   -6.5667    0.0000 C   0  0  0  0  0  0  0  0  0  0  0  0
    4.9125   -7.2792    0.0000 C   0  0  0  0  0  0  0  0  0  0  0  0
   -0.2875   -1.7792    0.0000 C   0  0  0  0  0  0  0  0  0  0  0  0
    9.0500   -2.1917    0.0000 C   0  0  0  0  0  0  0  0  0  0  0  0
   -0.2875   -3.4292    0.0000 C   0  0  0  0  0  0  0  0  0  0  0  0
    1.1500   -3.4292    0.0000 C   0  0  0  0  0  0  0  0  0  0  0  0
    7.6125   -0.5292    0.0000 C   0  0  0  0  0  0  0  0  0  0  0  0
    9.0500   -0.5292    0.0000 C   0  0  0  0  0  0  0  0  0  0  0  0
  2  1  1  0  0  0  0 
  3 12  1  0  0  0  0 
  4  5  1  0  0  0  0 
  5  9  1  0  0  0  0 
  6  1  1  0  0  0  0 
  7  2  1  0  0  0  0 
  8  4  1  0  0  0  0 
  9  6  1  0  0  0  0 
 10  7  1  0  0  0  0 
 11  8  1  0  0  0  0 
 12 14  1  0  0  0  0 
  1 13  1  1  0  0  0 
 14 16  2  0  0  0  0 
 15  3  1  0  0  0  0 
 16 22  1  0  0  0  0 
 17 10  1  0  0  0  0 
 18 11  1  0  0  0  0 
 19  3  2  0  0  0  0 
 20  2  2  0  0  0  0 
 21  4  2  0  0  0  0 
 22 26  2  0  0  0  0 
 23 10  2  0  0  0  0 
 24 11  2  0  0  0  0 
 25 33  2  0  0  0  0 
 26 34  1  0  0  0  0 
  5 27  1  1  0  0  0 
  6 28  1  6  0  0  0 
  9 29  1  6  0  0  0 
 30 13  1  0  0  0  0 
 17 31  1  6  0  0  0 
 18 32  1  6  0  0  0 
 33 30  1  0  0  0  0 
 34 30  2  0  0  0  0 
 35 37  1  0  0  0  0 
 36 16  1  0  0  0  0 
 37 36  2  0  0  0  0 
 38 17  1  0  0  0  0 
 39 18  1  0  0  0  0 
 40 31  1  0  0  0  0 
 41 31  1  0  0  0  0 
 42 32  1  0  0  0  0 
 43 32  1  0  0  0  0 
 25 22  1  0  0  0  0 
 12 35  2  0  0  0  0 
M  CHG  1   3   1
M  CHG  1  15  -1
M  END