
  SciTegic04191613082D

187198  0  0  1  0            999 V2000
    1.2835    9.0052    0.0000 C   0  0
    2.4584    8.7615    0.0000 C   0  0  2  0  0  0
    3.2567    9.6574    0.0000 O   0  0
    2.9324    7.3249    0.0000 C   0  0  1  0  0  0
    1.4932    7.7475    0.0000 N   0  0
    0.0000    7.8901    0.0000 C   0  0
    0.0000    9.0901    0.0000 O   0  0
   -1.4932    7.7475    0.0000 C   0  0  1  0  0  0
   -2.9325    7.3249    0.0000 N   0  0
   -4.2657    6.6375    0.0000 C   0  0
   -4.9145    7.6470    0.0000 O   0  0
   -5.4448    5.7103    0.0000 C   0  0  2  0  0  0
   -6.4271    4.5767    0.0000 N   0  0
   -7.1771    3.2776    0.0000 C   0  0
   -8.2687    3.7761    0.0000 O   0  0
   -7.6677    1.8601    0.0000 C   0  0
   -5.9764    1.5852    0.0000 C   0  0
   -5.2890    0.2519    0.0000 C   0  0
   -6.1000   -1.0100    0.0000 C   0  0
   -7.8098   -1.1229    0.0000 C   0  0
   -7.8812    0.3754    0.0000 C   0  0
   -7.4561   -2.5806    0.0000 C   0  0
   -6.8330   -3.9451    0.0000 N   0  0
   -5.9629   -5.1669    0.0000 C   0  0
   -4.8773   -6.2020    0.0000 C   0  0  2  0  0  0
   -3.6154   -7.0130    0.0000 N   0  0
   -2.2229   -7.5705    0.0000 C   0  0
   -2.5609   -8.7219    0.0000 O   0  0
   -0.7500   -7.8544    0.0000 C   0  0  1  0  0  0
   -0.3729   -9.3194    0.0000 C   0  0
   -1.4439  -10.3707    0.0000 C   0  0
   -1.0721  -11.8240    0.0000 C   0  0
   -2.1446  -12.8726    0.0000 C   0  0
   -3.5891  -12.4681    0.0000 C   0  0
   -3.9609  -11.0149    0.0000 C   0  0
   -2.8884   -9.9663    0.0000 C   0  0
    0.7500   -7.8544    0.0000 N   0  0
    2.2229   -7.5705    0.0000 C   0  0
    3.6155   -7.0130    0.0000 C   0  0  1  0  0  0
    4.8773   -6.2020    0.0000 N   0  0
    5.9629   -5.1669    0.0000 C   0  0
    6.8698   -5.9527    0.0000 O   0  0
    6.8330   -3.9450    0.0000 C   0  0  1  0  0  0
    7.4561   -2.5806    0.0000 N   0  0
    7.8098   -1.1229    0.0000 C   0  0
    7.8812    0.3754    0.0000 C   0  0  1  0  0  0
    7.6677    1.8602    0.0000 N   0  0
    7.1771    3.2777    0.0000 C   0  0
    8.2686    3.7762    0.0000 O   0  0
    6.4271    4.5767    0.0000 C   0  0  1  0  0  0
    7.9076    4.8672    0.0000 C   0  0
    8.3982    6.2847    0.0000 C   0  0
    7.4159    7.4183    0.0000 C   0  0
    5.9430    7.1344    0.0000 C   0  0
    5.4448    5.7103    0.0000 N   0  0
    4.2657    6.6376    0.0000 C   0  0
    4.9145    7.6471    0.0000 O   0  0
    9.3923    0.4445    0.0000 C   0  0
   10.2021   -0.8191    0.0000 C   0  0
   11.7125   -0.7592    0.0000 C   0  0
   12.5189   -2.0205    0.0000 C   0  0
   11.8298   -3.3498    0.0000 C   0  0
   12.6363   -4.6111    0.0000 C   0  0
   14.1318   -4.5431    0.0000 C   0  0
   14.8209   -3.2138    0.0000 C   0  0
   14.0144   -1.9525    0.0000 C   0  0
   10.3343   -3.4178    0.0000 C   0  0
    9.5117   -2.1481    0.0000 C   0  0
    8.9976   -1.2936    0.0000 O   0  0
    8.1416   -4.7039    0.0000 C   0  0
    8.1397   -6.2048    0.0000 C   0  0
    9.4380   -6.9577    0.0000 C   0  0
    9.4360   -8.4585    0.0000 N   0  0
   10.7343   -9.2115    0.0000 C   0  0
   11.7745   -8.6132    0.0000 N   0  0
   10.7327  -10.4115    0.0000 N   0  0
    4.1653   -8.0796    0.0000 C   0  0
    2.5610   -8.7219    0.0000 O   0  0
   -4.2859   -8.0796    0.0000 C   0  0
   -5.2483   -8.7964    0.0000 O   0  0
   -3.0442   -8.9211    0.0000 N   0  0
   -1.6585   -9.4955    0.0000 C   0  0  2  0  0  0
   -0.1856   -9.7791    0.0000 C   0  0
   -0.2921  -10.9744    0.0000 O   0  0
    1.3143   -9.7605    0.0000 N   0  0
    2.7797   -9.4402    0.0000 C   0  0  2  0  0  0
    4.1507   -8.8316    0.0000 C   0  0
    4.7461   -9.8735    0.0000 O   0  0
    5.3711   -7.9595    0.0000 N   0  0
    6.3909   -6.8595    0.0000 C   0  0  1  0  0  0
    7.5967   -7.7727    0.0000 C   0  0
    7.4111   -9.2620    0.0000 C   0  0
    8.6106  -10.1819    0.0000 C   0  0
    8.4239  -11.6673    0.0000 C   0  0
    9.6171  -12.5714    0.0000 C   0  0
    9.4304  -14.0568    0.0000 C   0  0
    8.0505  -14.6380    0.0000 C   0  0
    6.8573  -13.7339    0.0000 C   0  0
    7.0440  -12.2485    0.0000 C   0  0
    5.8508  -11.3444    0.0000 C   0  0
    6.0304   -9.8422    0.0000 C   0  0
    7.1685   -5.5767    0.0000 C   0  0
    7.6719   -4.1637    0.0000 N   0  0
    7.8805   -2.6783    0.0000 C   0  0  2  0  0  0
    7.7859   -1.1813    0.0000 C   0  0
    8.9697   -0.9849    0.0000 O   0  0
    7.3919    0.2660    0.0000 N   0  0
    6.7146    1.6044    0.0000 C   0  0  2  0  0  0
    5.7818    2.7790    0.0000 C   0  0
    6.6412    3.6166    0.0000 O   0  0
    4.6316    3.7419    0.0000 N   0  0
    3.3111    4.4534    0.0000 C   0  0  1  0  0  0
    3.8929    5.8496    0.0000 C   0  0
    2.9826    7.0428    0.0000 C   0  0
    3.5599    8.4282    0.0000 C   0  0
    5.0482    8.6218    0.0000 N   0  0
    5.6255   10.0072    0.0000 C   0  0
    4.8967   10.9605    0.0000 N   0  0
    6.8155   10.1620    0.0000 N   0  0
    1.8744    4.8846    0.0000 C   0  0
    2.1013    6.0630    0.0000 O   0  0
    0.3803    5.0178    0.0000 N   0  0
   -1.1100    4.8475    0.0000 C   0  0  1  0  0  0
   -2.5355    4.3807    0.0000 C   0  0
   -3.8378    3.6365    0.0000 N   0  0
   -4.9637    2.6453    0.0000 C   0  0
   -6.0214    3.2122    0.0000 O   0  0
   -1.4357    6.3246    0.0000 C   0  0
   -0.5498    7.1340    0.0000 O   0  0
   -2.8663    6.7784    0.0000 N   0  0
   -3.1895    8.2440    0.0000 C   0  0  1  0  0  0
   -2.4959    9.5749    0.0000 C   0  0
   -3.3009   10.8416    0.0000 C   0  0
   -4.8004   10.7787    0.0000 C   0  0
   -5.6054   12.0453    0.0000 C   0  0
   -6.8044   11.9951    0.0000 N   0  0
   -4.6196    8.6993    0.0000 C   0  0
   -4.8768    9.8714    0.0000 O   0  0
   -5.5064    7.8908    0.0000 O   0  0
    7.9898    2.4179    0.0000 C   0  0
    9.3219    1.7266    0.0000 C   0  0
   10.5872    2.5338    0.0000 C   0  0
   11.9193    1.8425    0.0000 N   0  0
   13.1846    2.6497    0.0000 C   0  0
   14.2497    2.0970    0.0000 N   0  0
   13.1311    3.8485    0.0000 N   0  0
    9.3919   -2.7391    0.0000 C   0  0
   10.0903   -4.0675    0.0000 C   0  0
   11.5891   -4.1299    0.0000 C   0  0
   12.2844   -5.4590    0.0000 C   0  0
   11.4811   -6.7257    0.0000 C   0  0
    9.9824   -6.6634    0.0000 C   0  0
    9.2870   -5.3343    0.0000 C   0  0
    8.2523   -6.0918    0.0000 O   0  0
    3.2477  -10.8786    0.0000 C   0  0
    2.2445  -11.9949    0.0000 C   0  0
    2.7088  -13.4221    0.0000 C   0  0
    1.7057  -14.5385    0.0000 N   0  0
    2.1700  -15.9657    0.0000 C   0  0
    3.3439  -16.2144    0.0000 N   0  0
    1.3679  -16.8582    0.0000 N   0  0
   -2.5650  -10.7064    0.0000 C   0  0
   -2.4826  -12.2049    0.0000 C   0  0
   -3.7386  -13.0264    0.0000 C   0  0
   -3.6562  -14.5249    0.0000 N   0  0
   -4.9123  -15.3464    0.0000 C   0  0
   -5.9831  -14.8047    0.0000 N   0  0
   -4.8464  -16.5446    0.0000 N   0  0
   -8.5901   -2.9731    0.0000 O   0  0
   -6.4866    6.8071    0.0000 C   0  0
   -7.9460    6.4570    0.0000 C   0  0
   -8.9807    7.5431    0.0000 C   0  0
  -10.4386    7.1902    0.0000 C   0  0
  -10.8619    5.7512    0.0000 C   0  0
   -9.8274    4.6651    0.0000 C   0  0
   -8.3695    5.0179    0.0000 C   0  0
   -1.7767    9.2335    0.0000 C   0  0
   -0.6411   10.2148    0.0000 C   0  0
   -0.9200   11.6887    0.0000 C   0  0
    0.2169   12.6672    0.0000 C   0  0
    1.6327   12.1719    0.0000 C   0  0
    2.5422   12.9547    0.0000 F   0  0
    1.9117   10.6980    0.0000 C   0  0
    0.7748    9.7195    0.0000 C   0  0
    7.3374    4.1628    0.0000 H   0  0
   -4.2702   -6.9967    0.0000 H   0  0
    2.2137    8.0202    0.0000 H   0  0
  2  1  1  6
  2  3  1  0
  4  2  1  0
  4  5  1  0
  5  6  1  0
  6  7  2  0
  6  8  1  0
  8  9  1  0
  9 10  1  0
 10 11  2  0
 12 10  1  0
 13 12  1  0
 13 14  1  0
 14 15  2  0
 14 16  1  0
 16 17  2  0
 17 18  1  0
 18 19  2  0
 19 20  1  0
 20 21  2  0
 21 16  1  0
 20 22  1  0
 22 23  1  0
 24 23  1  0
 25 24  1  0
 26 25  1  0
 27 26  1  0
 27 28  2  0
 29 27  1  0
 29 30  1  6
 30 31  1  0
 31 32  2  0
 32 33  1  0
 33 34  2  0
 34 35  1  0
 35 36  2  0
 36 31  1  0
 37 29  1  0
 38 37  1  0
 39 38  1  0
 40 39  1  0
 41 40  1  0
 41 42  2  0
 43 41  1  0
 44 43  1  0
 45 44  1  0
 46 45  1  0
 46 47  1  0
 47 48  1  0
 48 49  2  0
 50 48  1  0
 50 51  1  0
 51 52  1  0
 52 53  1  0
 53 54  1  0
 54 55  1  0
 50 55  1  0
 55 56  1  0
 56 57  2  0
  4 56  1  0
 46 58  1  1
 58 59  1  0
 59 60  2  0
 60 61  1  0
 62 61  1  0
 63 62  2  0
 64 63  1  0
 65 64  2  0
 66 65  1  0
 61 66  2  0
 62 67  1  0
 67 68  2  0
 68 59  1  0
 45 69  2  0
 43 70  1  1
 70 71  1  0
 71 72  1  0
 72 73  1  0
 73 74  1  0
 74 75  1  0
 74 76  2  0
 39 77  1  1
 38 78  2  0
 25 79  1  0
 79 80  2  0
 79 81  1  0
 81 82  1  0
 82 83  1  0
 83 84  2  0
 83 85  1  0
 85 86  1  0
 86 87  1  0
 87 88  2  0
 87 89  1  0
 89 90  1  0
 90 91  1  6
 91 92  1  0
 93 92  1  0
 94 93  2  0
 95 94  1  0
 96 95  2  0
 97 96  1  0
 98 97  2  0
 99 98  1  0
 94 99  1  0
100 99  2  0
101100  1  0
 92101  2  0
 90102  1  0
102103  1  0
103104  1  0
104105  1  0
105106  2  0
105107  1  0
108107  1  0
109108  1  0
109110  2  0
111109  1  0
112111  1  0
112113  1  6
113114  1  0
114115  1  0
115116  1  0
116117  1  0
117118  1  0
117119  2  0
120112  1  0
120121  2  0
122120  1  0
123122  1  0
123124  1  0
125124  1  0
126125  1  0
126127  2  0
 18126  1  0
123128  1  1
128129  2  0
128130  1  0
131130  1  6
131132  1  0
132133  1  0
133134  1  0
134135  1  0
135136  1  0
131137  1  0
137138  2  0
137139  1  0
108140  1  6
140141  1  0
141142  1  0
142143  1  0
143144  1  0
144145  2  0
144146  1  0
104147  1  6
147148  1  0
148149  2  0
149150  1  0
150151  2  0
151152  1  0
152153  2  0
153148  1  0
102154  2  0
 86155  1  6
155156  1  0
156157  1  0
157158  1  0
158159  1  0
159160  1  0
159161  2  0
 82162  1  6
162163  1  0
163164  1  0
164165  1  0
165166  1  0
166167  1  0
166168  2  0
 22169  2  0
 12170  1  6
170171  1  0
172171  1  0
173172  2  0
174173  1  0
175174  2  0
176175  1  0
171176  2  0
  8177  1  1
177178  1  0
179178  1  0
180179  2  0
181180  1  0
181182  1  0
183181  2  0
184183  1  0
178184  2  0
 50185  1  1
 25186  1  1
  4187  1  1
M  END