
          11280715502D 1   1.00000     0.00000     0

 47 51  0     1  0            999 V2000
   15.6013   -2.8994    0.0000 N   0  0  3  0  0  0           0  0  0
   14.8834   -2.4982    0.0000 C   0  0  0  0  0  0           0  0  0
   14.1782   -2.9194    0.0000 C   0  0  0  0  0  0           0  0  0
   14.1882   -3.7446    0.0000 O   0  0  0  0  0  0           0  0  0
   14.9095   -4.1470    0.0000 C   0  0  0  0  0  0           0  0  0
   15.6209   -3.7241    0.0000 C   0  0  0  0  0  0           0  0  0
   14.9039   -0.0112    0.0000 C   0  0  0  0  0  0           0  0  0
   14.9090    0.8138    0.0000 C   0  0  0  0  0  0           0  0  0
   15.6158   -0.4281    0.0000 N   0  0  0  0  0  0           0  0  0
   15.6107   -1.2531    0.0000 O   0  0  0  0  0  0           0  0  0
   16.3226   -1.6700    0.0000 C   0  0  0  0  0  0           0  0  0
   16.3174   -2.4950    0.0000 C   0  0  0  0  0  0           0  0  0
    7.7652    0.7834    0.0000 C   0  0  0  0  0  0           0  0  0
    7.7641   -0.0440    0.0000 C   0  0  0  0  0  0           0  0  0
    8.4789   -0.4569    0.0000 C   0  0  0  0  0  0           0  0  0
    9.1953   -0.0435    0.0000 C   0  0  0  0  0  0           0  0  0
    9.1925    0.7870    0.0000 C   0  0  0  0  0  0           0  0  0
    8.4771    1.1961    0.0000 C   0  0  0  0  0  0           0  0  0
    9.9054    1.2022    0.0000 C   0  0  0  0  0  0           0  0  0
   10.6214    0.7924    0.0000 N   0  0  3  0  0  0           0  0  0
    9.9023    2.0272    0.0000 O   0  0  0  0  0  0           0  0  0
   10.6219   -0.0344    0.0000 C   0  0  1  0  0  0           0  0  0
   11.3338   -0.4441    0.0000 C   0  0  0  0  0  0           0  0  0
   12.0492   -0.0324    0.0000 N   0  0  3  0  0  0           0  0  0
   12.0480    0.7936    0.0000 C   0  0  0  0  0  0           0  0  0
   11.3316    1.2078    0.0000 C   0  0  0  0  0  0           0  0  0
    9.9078   -0.4476    0.0000 C   0  0  0  0  0  0           0  0  0
    9.9000   -1.2708    0.0000 C   0  0  0  0  0  0           0  0  0
    9.2320   -1.7521    0.0000 C   0  0  0  0  0  0           0  0  0
    9.4790   -2.5375    0.0000 N   0  0  0  0  0  0           0  0  0
   10.5640   -1.7648    0.0000 C   0  0  0  0  0  0           0  0  0
   10.3020   -2.5438    0.0000 C   0  0  0  0  0  0           0  0  0
   10.8452   -3.1582    0.0000 C   0  0  0  0  0  0           0  0  0
   11.6505   -2.9947    0.0000 C   0  0  0  0  0  0           0  0  0
   11.9097   -2.2114    0.0000 C   0  0  0  0  0  0           0  0  0
   11.3648   -1.6004    0.0000 C   0  0  0  0  0  0           0  0  0
    8.4708   -1.2792    0.0000 C   0  0  3  0  0  0           0  0  0
    9.2958   -1.2792    0.0000 F   0  0  0  0  0  0           0  0  0
    8.4667   -2.1042    0.0000 F   0  0  0  0  0  0           0  0  0
    7.6458   -1.2750    0.0000 F   0  0  0  0  0  0           0  0  0
    7.0507    1.1957    0.0000 C   0  0  3  0  0  0           0  0  0
    6.6333    0.4833    0.0000 F   0  0  0  0  0  0           0  0  0
    7.4583    1.9125    0.0000 F   0  0  0  0  0  0           0  0  0
    6.3333    1.6083    0.0000 F   0  0  0  0  0  0           0  0  0
   12.7636   -0.4449    0.0000 C   0  0  0  0  0  0           0  0  0
   13.4750   -0.0250    0.0000 C   0  0  0  0  0  0           0  0  0
   14.1934   -0.4306    0.0000 C   0  0  0  0  0  0           0  0  0
  1  2  1  0     0  0
 20 26  1  0     0  0
 22 23  1  0     0  0
 23 24  1  0     0  0
 24 25  1  0     0  0
 25 26  1  0     0  0
 13 14  2  0     0  0
 22 27  1  1     0  0
 27 28  1  0     0  0
 28 29  2  0     0  0
 14 15  1  0     0  0
  7  8  1  0     0  0
 29 30  1  0     0  0
 30 32  1  0     0  0
 31 28  1  0     0  0
 15 16  2  0     0  0
  1  6  1  0     0  0
 31 32  2  0     0  0
 16 17  1  0     0  0
 32 33  1  0     0  0
  7  9  2  0     0  0
 33 34  2  0     0  0
 17 18  2  0     0  0
 34 35  1  0     0  0
 18 13  1  0     0  0
 35 36  2  0     0  0
 36 31  1  0     0  0
  2  3  1  0     0  0
 15 37  1  0     0  0
 17 19  1  0     0  0
 37 38  1  0     0  0
  9 10  1  0     0  0
 37 39  1  0     0  0
 19 20  1  0     0  0
 37 40  1  0     0  0
  3  4  1  0     0  0
 13 41  1  0     0  0
 19 21  2  0     0  0
 41 42  1  0     0  0
 20 22  1  0     0  0
 41 43  1  0     0  0
 10 11  1  0     0  0
 41 44  1  0     0  0
  4  5  1  0     0  0
 24 45  1  0     0  0
 11 12  1  0     0  0
 45 46  1  0     0  0
  5  6  1  0     0  0
 46 47  1  0     0  0
 47  7  1  0     0  0
 12  1  1  0     0  0
M  END