
  SciTegic10191216002D

 27 30  0  0  0  0            999 V2000
   21.4290    1.7474    0.0000 C   0  0
   21.4278    0.9193    0.0000 C   0  0
   22.1432    0.5060    0.0000 C   0  0
   22.8603    0.9198    0.0000 C   0  0
   22.8574    1.7510    0.0000 C   0  0
   22.1414    2.1604    0.0000 C   0  0
   22.1458   -0.3187    0.0000 C   0  0
   22.1398   -1.9690    0.0000 C   0  0
   22.8568   -1.5576    0.0000 N   0  0
   22.8607   -0.7293    0.0000 C   0  0
   21.4267   -1.5521    0.0000 C   0  0
   21.4299   -0.7321    0.0000 C   0  0
   20.7225   -0.3212    0.0000 C   0  0
   20.0114   -0.7290    0.0000 N   0  0
   20.0121   -1.5522    0.0000 C   0  0
   20.7201   -1.9594    0.0000 C   0  0
   18.5820   -1.5540    0.0000 C   0  0
   17.8674   -1.9677    0.0000 C   0  0
   17.1519   -1.5558    0.0000 C   0  0
   16.4401   -1.9695    0.0000 N   0  0
   15.7257   -1.5611    0.0000 C   0  0
   15.0160   -1.9713    0.0000 C   0  0
   15.0142   -2.7949    0.0000 C   0  0
   15.7283   -3.2067    0.0000 C   0  0
   16.4441   -2.7947    0.0000 C   0  0
   22.1390    2.9861    0.0000 Cl  0  0
   19.2976   -1.9659    0.0000 O   0  0
 12 13  1  0
  7 12  1  0
 13 14  2  0
  1  2  2  0
 14 15  1  0
  3  4  2  0
 15 16  2  0
 16 11  1  0
 15 27  1  0
  4  5  1  0
 27 17  1  0
  7 10  1  0
 17 18  1  0
 11  8  1  0
 18 19  1  0
  8  9  1  0
 19 20  1  0
 20 21  1  0
  9 10  1  0
  7  3  1  0
  2  3  1  0
  5  6  2  0
 11 12  2  0
 20 25  1  0
 21 22  1  0
 22 23  1  0
 23 24  1  0
 24 25  1  0
  6  1  1  0
  6 26  1  0
M  END