
          11280715162D 1   1.00000     0.00000     0

 52 58  0     0  0            999 V2000
    8.5417   -9.4542    0.0000 C   0  0  0  0  0  0           0  0  0
   10.1917   -9.4542    0.0000 C   0  0  0  0  0  0           0  0  0
    9.7792  -10.1667    0.0000 C   0  0  0  0  0  0           0  0  0
    8.9625  -10.1667    0.0000 C   0  0  0  0  0  0           0  0  0
    4.6500   -7.7250    0.0000 N   0  0  0  0  0  0           0  0  0
   13.6542   -7.1292    0.0000 N   0  0  0  0  0  0           0  0  0
    5.8125   -8.3917    0.0000 C   0  0  0  0  0  0           0  0  0
   12.6667   -8.0167    0.0000 C   0  0  0  0  0  0           0  0  0
   13.4792   -7.9375    0.0000 C   0  0  0  0  0  0           0  0  0
    4.9875   -8.4792    0.0000 C   0  0  0  0  0  0           0  0  0
    5.9792   -7.5875    0.0000 C   0  0  0  0  0  0           0  0  0
   12.3292   -7.2667    0.0000 C   0  0  0  0  0  0           0  0  0
    7.7167   -9.4542    0.0000 N   0  0  3  0  0  0           0  0  0
   11.0167   -9.4542    0.0000 N   0  0  3  0  0  0           0  0  0
    5.2667   -7.1667    0.0000 C   0  0  0  0  0  0           0  0  0
   12.9417   -6.7167    0.0000 C   0  0  0  0  0  0           0  0  0
   13.4917  -10.8792    0.0000 N   0  0  3  0  0  0           0  0  0
    5.4042  -11.1375    0.0000 N   0  0  3  0  0  0           0  0  0
    8.9542   -8.7417    0.0000 O   0  0  0  0  0  0           0  0  0
    9.7792   -8.7417    0.0000 O   0  0  0  0  0  0           0  0  0
    6.3625   -9.0125    0.0000 C   0  0  0  0  0  0           0  0  0
   12.2542   -8.7375    0.0000 C   0  0  0  0  0  0           0  0  0
    3.7667  -11.3042    0.0000 S   0  0  0  0  0  0           0  0  0
   15.1417  -10.8792    0.0000 S   0  0  0  0  0  0           0  0  0
    7.1667   -8.8417    0.0000 C   0  0  0  0  0  0           0  0  0
   11.4292   -8.7375    0.0000 C   0  0  0  0  0  0           0  0  0
   12.2542  -10.1667    0.0000 C   0  0  0  0  0  0           0  0  0
    6.5625  -10.2917    0.0000 C   0  0  0  0  0  0           0  0  0
   12.6667  -10.8792    0.0000 C   0  0  0  0  0  0           0  0  0
    6.2250  -11.0500    0.0000 C   0  0  0  0  0  0           0  0  0
   10.1917  -10.8750    0.0000 C   0  0  0  0  0  0           0  0  0
    8.5500  -10.8750    0.0000 C   0  0  0  0  0  0           0  0  0
   11.4292  -10.1667    0.0000 C   0  0  0  0  0  0           0  0  0
    7.3792  -10.2125    0.0000 C   0  0  0  0  0  0           0  0  0
   13.9042  -11.5917    0.0000 C   0  0  0  0  0  0           0  0  0
    4.9167  -10.4667    0.0000 C   0  0  0  0  0  0           0  0  0
   13.9042  -10.1625    0.0000 C   0  0  0  0  0  0           0  0  0
    5.0667  -11.8917    0.0000 C   0  0  0  0  0  0           0  0  0
    6.7000   -7.1750    0.0000 C   0  0  0  0  0  0           0  0  0
   11.5417   -7.0167    0.0000 C   0  0  0  0  0  0           0  0  0
    4.1042  -10.5500    0.0000 C   0  0  0  0  0  0           0  0  0
   14.7292  -10.1667    0.0000 C   0  0  0  0  0  0           0  0  0
    4.2500  -11.9667    0.0000 C   0  0  0  0  0  0           0  0  0
   14.7292  -11.5917    0.0000 C   0  0  0  0  0  0           0  0  0
   12.7667   -5.9167    0.0000 C   0  0  0  0  0  0           0  0  0
    5.2667   -6.3500    0.0000 C   0  0  0  0  0  0           0  0  0
    8.9542  -11.5875    0.0000 C   0  0  0  0  0  0           0  0  0
    9.7792  -11.5875    0.0000 C   0  0  0  0  0  0           0  0  0
   11.3750   -6.2167    0.0000 C   0  0  0  0  0  0           0  0  0
    6.7000   -6.3417    0.0000 C   0  0  0  0  0  0           0  0  0
    5.9792   -5.9292    0.0000 C   0  0  0  0  0  0           0  0  0
   11.9875   -5.6542    0.0000 C   0  0  0  0  0  0           0  0  0
  2  3  1  0     0  0
  3  4  2  0     0  0
  4  1  1  0     0  0
  5 10  1  0     0  0
  6  9  1  0     0  0
  7 21  1  0     0  0
  8 22  1  0     0  0
  9  8  2  0     0  0
 10  7  2  0     0  0
 11  7  1  0     0  0
 12  8  1  0     0  0
 13  1  1  0     0  0
 14  2  1  0     0  0
 15 11  1  0     0  0
 16 12  2  0     0  0
 17 29  1  0     0  0
 18 30  1  0     0  0
 19  1  2  0     0  0
 20  2  2  0     0  0
 21 25  1  0     0  0
 22 26  1  0     0  0
 23 43  1  0     0  0
 24 42  1  0     0  0
 25 13  1  0     0  0
 26 14  1  0     0  0
 27 33  1  0     0  0
 28 34  1  0     0  0
 29 27  1  0     0  0
 30 28  1  0     0  0
 31  3  1  0     0  0
 32  4  1  0     0  0
 33 14  1  0     0  0
 34 13  1  0     0  0
 35 17  1  0     0  0
 36 18  1  0     0  0
 37 17  1  0     0  0
 38 18  1  0     0  0
 39 11  2  0     0  0
 40 12  1  0     0  0
 41 36  1  0     0  0
 42 37  1  0     0  0
 43 38  1  0     0  0
 44 35  1  0     0  0
 45 16  1  0     0  0
 46 15  2  0     0  0
 47 32  2  0     0  0
 48 47  1  0     0  0
 49 40  2  0     0  0
 50 39  1  0     0  0
 51 50  2  0     0  0
 52 49  1  0     0  0
 48 31  2  0     0  0
 15  5  1  0     0  0
 41 23  1  0     0  0
 51 46  1  0     0  0
  6 16  1  0     0  0
 44 24  1  0     0  0
 45 52  2  0     0  0
M  END