
  SciTegic05171617262D

 39 45  0  0  0  0            999 V2000
    4.4262   -2.2855    0.0000 N   0  0
    4.9397   -1.2009    0.0000 C   0  0
    6.4347   -1.0783    0.0000 N   0  0
    7.0761    0.2776    0.0000 C   0  0
    6.2225    1.5111    0.0000 C   0  0
    4.7275    1.3885    0.0000 C   0  0
    4.0896    0.0290    0.0000 C   0  0
    2.5889    0.0182    0.0000 C   0  0
    1.7138    1.2033    0.0000 N   0  0
    0.2917    0.7475    0.0000 C   0  0
   -1.0028    1.5132    0.0000 C   0  0
   -2.3155    0.7475    0.0000 C   0  0
   -2.3155   -0.7475    0.0000 C   0  0
   -1.0028   -1.5132    0.0000 N   0  0
    0.2917   -0.7475    0.0000 C   0  0
    1.7138   -1.2033    0.0000 N   0  0
    2.1852   -2.6281    0.0000 C   0  0
    3.6221   -3.0405    0.0000 C   0  0
    3.9838   -4.4963    0.0000 C   0  0
    2.9039   -5.5373    0.0000 C   0  0
    1.4624   -5.1227    0.0000 C   0  0
    1.1007   -3.6669    0.0000 C   0  0
    3.2656   -6.9940    0.0000 C   0  0
    2.4000   -7.8250    0.0000 N   0  0
    4.4893   -6.2434    0.0000 C   0  0
    5.2140   -7.5567    0.0000 C   0  0
    3.9007   -8.2814    0.0000 C   0  0
   -3.6168   -1.4950    0.0000 C   0  0
   -3.6203   -2.9951    0.0000 C   0  0
   -4.9210   -3.7422    0.0000 C   0  0
   -6.2184   -2.9893    0.0000 C   0  0
   -6.2150   -1.4893    0.0000 C   0  0
   -7.5115   -0.7333    0.0000 N   0  0
   -7.5060    0.7675    0.0000 C   0  0
   -6.4644    1.3634    0.0000 O   0  0
   -8.8025    1.5235    0.0000 C   0  0
   -9.4706    2.7783    0.0000 C   0  0
  -10.2235    1.4809    0.0000 C   0  0
   -4.9143   -0.7422    0.0000 C   0  0
  1  2  1  0
  2  3  2  0
  3  4  1  0
  4  5  2  0
  5  6  1  0
  6  7  2  0
  2  7  1  0
  7  8  1  0
  8  9  2  0
  9 10  1  0
 10 11  2  0
 11 12  1  0
 12 13  2  0
 13 14  1  0
 14 15  2  0
 10 15  1  0
 15 16  1  0
  8 16  1  0
 16 17  1  0
 17 18  2  0
 18 19  1  0
 19 20  2  0
 20 21  1  0
 21 22  2  0
 17 22  1  0
 20 23  1  0
 23 24  1  0
 23 25  1  0
 25 26  1  0
 26 27  1  0
 23 27  1  0
 13 28  1  0
 28 29  2  0
 29 30  1  0
 30 31  2  0
 31 32  1  0
 32 33  1  0
 33 34  1  0
 34 35  2  0
 34 36  1  0
 36 37  1  0
 37 38  1  0
 36 38  1  0
 32 39  2  0
 28 39  1  0
M  END