
  SciTegic12231509382D

 30 33  0  0  0  0            999 V2000
    0.2917    0.7475    0.0000 C   0  0
   -1.0028    1.5132    0.0000 C   0  0
    0.2917   -0.7475    0.0000 C   0  0
    1.7138   -1.2033    0.0000 S   0  0
   -6.2216    1.4644    0.0000 N   0  0
   -8.8299    2.9467    0.0000 N   0  0
    1.7138    1.2033    0.0000 C   0  0
    2.5889    0.0182    0.0000 C   0  0
   -2.3155    0.7475    0.0000 C   0  0
  -14.0297    2.9022    0.0000 C   0  0
   -0.9991    2.7132    0.0000 O   0  0
  -15.3360    3.6411    0.0000 C   0  0
   -1.0028   -1.5132    0.0000 C   0  0
  -14.0194    1.7023    0.0000 O   0  0
   -2.3155   -0.7475    0.0000 C   0  0
   -3.6217    1.4865    0.0000 C   0  0
  -16.6300    2.8823    0.0000 C   0  0
  -15.3464    5.1411    0.0000 C   0  0
   -4.9153    0.7255    0.0000 C   0  0
   -7.5156    0.7056    0.0000 C   0  0
   -6.2319    2.9644    0.0000 C   0  0
   -7.5360    3.7055    0.0000 C   0  0
   -8.8197    1.4467    0.0000 C   0  0
  -17.9444    5.1234    0.0000 C   0  0
  -17.9341    3.6234    0.0000 C   0  0
  -16.6505    5.8822    0.0000 C   0  0
  -18.9877    5.7163    0.0000 F   0  0
  -10.1363    3.6856    0.0000 C   0  0
  -11.4298    2.9245    0.0000 C   0  0
  -12.7361    3.6633    0.0000 C   0  0
  1  2  1  0
  1  3  2  0
  3  4  1  0
  1  7  1  0
  4  8  1  0
  7  8  2  0
  2  9  1  0
  2 11  2  0
 10 12  1  0
  3 13  1  0
 10 14  2  0
  9 15  1  0
 13 15  1  0
  9 16  1  0
 12 17  1  0
 12 18  2  0
  5 19  1  0
 16 19  1  0
  5 20  1  0
  5 21  1  0
  6 22  1  0
 21 22  1  0
  6 23  1  0
 20 23  1  0
 17 25  2  0
 24 25  1  0
 18 26  1  0
 24 26  2  0
 24 27  1  0
  6 28  1  0
 28 29  1  0
 10 30  1  0
 29 30  1  0
M  END