
  SciTegic09291413392D

 32 33  0  0  0  0            999 V2000
   19.6538  -14.3123    0.0000 O   0  0
   18.9820  -14.7978    0.0000 C   0  0
   19.2372  -15.5873    0.0000 C   0  0
   20.0663  -15.5873    0.0000 C   0  0
   20.3232  -14.7991    0.0000 C   0  0
   21.1079  -14.5446    0.0000 O   0  0
   20.5510  -16.2549    0.0000 C   0  0
   18.5622  -14.0790    0.0000 C   0  0
   18.5574  -15.5046    0.0000 C   0  0
   17.7325  -15.4903    0.0000 O   0  0
   17.7372  -14.0812    0.0000 O   0  0
   17.3229  -13.3677    0.0000 C   0  0
   16.4979  -13.3700    0.0000 C   0  0
   17.7335  -12.6522    0.0000 O   0  0
   20.1256  -16.9620    0.0000 C   0  0
   19.3000  -16.9456    0.0000 C   0  0
   18.8748  -17.6516    0.0000 C   0  0
   19.2744  -18.3744    0.0000 C   0  0
   20.1036  -18.3867    0.0000 C   0  0
   20.5251  -17.6800    0.0000 C   0  0
   16.0835  -12.6566    0.0000 C   0  0
   15.2585  -12.6587    0.0000 C   0  0
   16.4941  -11.9411    0.0000 C   0  0
   16.0798  -11.2276    0.0000 C   0  0
   16.4903  -10.5121    0.0000 C   0  0
   15.2548  -11.2298    0.0000 C   0  0
   14.8479  -13.3743    0.0000 C   0  0
   14.0229  -13.3765    0.0000 C   0  0
   15.2622  -14.0876    0.0000 C   0  0
   18.8501  -19.0818    0.0000 C   0  0
   18.0252  -19.0681    0.0000 O   0  0
   19.2505  -19.8031    0.0000 O   0  0
  2  3  1  0
  1  2  1  0
  3  4  1  0
  4  5  1  0
  5  1  1  0
  5  6  2  0
  4  7  2  0
  2  8  1  0
  2  9  1  0
  9 10  1  0
  8 11  1  0
 11 12  1  0
 12 13  1  0
 12 14  2  0
  7 15  1  0
 15 16  2  0
 16 17  1  0
 17 18  2  0
 18 19  1  0
 19 20  2  0
 20 15  1  0
 13 21  1  0
 21 22  1  0
 21 23  1  0
 23 24  1  0
 24 25  1  0
 24 26  1  0
 22 27  1  0
 27 28  1  0
 27 29  1  0
 18 30  1  0
 30 31  2  0
 30 32  1  0
M  END