
          11280715262D 1   1.00000     0.00000     0

 28 29  0     0  0            999 V2000
    4.3917   -1.1292    0.0000 C   0  0  0  0  0  0           0  0  0
    4.3917   -1.9542    0.0000 C   0  0  0  0  0  0           0  0  0
    3.6792   -0.7167    0.0000 C   0  0  0  0  0  0           0  0  0
    3.6792   -2.3667    0.0000 N   0  0  0  0  0  0           0  0  0
    7.2542   -4.4250    0.0000 C   0  0  0  0  0  0           0  0  0
    6.6500   -1.1167    0.0000 P   0  0  3  0  0  0           0  0  0
    2.9667   -1.1292    0.0000 C   0  0  0  0  0  0           0  0  0
    5.1125   -2.3667    0.0000 N   0  0  0  0  0  0           0  0  0
    2.9667   -1.9542    0.0000 C   0  0  0  0  0  0           0  0  0
    6.5417   -4.8375    0.0000 C   0  0  0  0  0  0           0  0  0
    7.9667   -4.8375    0.0000 C   0  0  0  0  0  0           0  0  0
    5.1042   -0.7125    0.0000 C   0  0  0  0  0  0           0  0  0
    5.1125   -3.1917    0.0000 N   0  0  0  0  0  0           0  0  0
    7.2500   -3.5917    0.0000 C   0  0  0  0  0  0           0  0  0
    5.8250   -4.4292    0.0000 C   0  0  0  0  0  0           0  0  0
    5.8250   -1.1167    0.0000 O   0  0  0  0  0  0           0  0  0
    6.6417   -0.2917    0.0000 O   0  0  0  0  0  0           0  0  0
    3.6750    0.1083    0.0000 C   0  0  0  0  0  0           0  0  0
    8.6792   -4.4167    0.0000 O   0  0  0  0  0  0           0  0  0
    5.8292   -3.6042    0.0000 C   0  0  0  0  0  0           0  0  0
    7.4750   -1.1167    0.0000 O   0  0  0  0  0  0           0  0  0
    6.6417   -1.9417    0.0000 O   0  0  0  0  0  0           0  0  0
    2.9625    0.5208    0.0000 O   0  0  0  0  0  0           0  0  0
    6.5417   -5.6625    0.0000 Cl  0  0  0  0  0  0           0  0  0
    2.2542   -0.7167    0.0000 O   0  0  0  0  0  0           0  0  0
    6.5375   -3.1875    0.0000 C   0  0  0  0  0  0           0  0  0
    7.9750   -5.6625    0.0000 O   0  0  0  0  0  0           0  0  0
    2.2500   -2.3667    0.0000 C   0  0  0  0  0  0           0  0  0
  2  1  1  0     0  0
  3  1  2  0     0  0
  4  2  2  0     0  0
  5 14  1  0     0  0
  6 16  1  0     0  0
  7  3  1  0     0  0
  8  2  1  0     0  0
  9  7  2  0     0  0
 10 15  1  0     0  0
 11  5  1  0     0  0
 12  1  1  0     0  0
 13  8  2  0     0  0
 14 26  2  0     0  0
 15 20  2  0     0  0
 16 12  1  0     0  0
 17  6  2  0     0  0
 18  3  1  0     0  0
 19 11  2  0     0  0
 20 13  1  0     0  0
 21  6  1  0     0  0
 22  6  1  0     0  0
 23 18  2  0     0  0
 24 10  1  0     0  0
 25  7  1  0     0  0
 26 20  1  0     0  0
 27 11  1  0     0  0
 28  9  1  0     0  0
  4  9  1  0     0  0
 10  5  2  0     0  0
M  END