
  SciTegic10041313202D

 34 41  0  0  0  0            999 V2000
   -1.9833   -1.9417    0.0000 C   0  0
   -0.7583   -2.6792    0.0000 C   0  0
   -1.5583   -1.2417    0.0000 C   0  0
   -0.3333   -1.9750    0.0000 C   0  0
   -1.5833   -2.6625    0.0000 C   0  0
   -2.7958   -1.9292    0.0000 C   0  0
    0.0667   -3.1292    0.0000 N   0  0
   -3.2208   -2.6292    0.0000 C   0  0
   -2.3708   -3.0375    0.0000 O   0  0
   -1.9458   -0.5167    0.0000 C   0  0
   -1.5458    0.2000    0.0000 N   0  0
    0.8917   -2.6625    0.0000 C   0  0
    0.4667   -1.9750    0.0000 C   0  0
   -0.7333   -1.2542    0.0000 C   0  0
   -3.1958   -1.2167    0.0000 C   0  0
   -2.7708   -0.5042    0.0000 C   0  0
   -2.3958   -1.2250    0.0000 C   0  0
    2.5542   -4.0500    0.0000 C   0  0
   -1.5458    1.0250    0.0000 C   0  0
   -4.0333   -2.6167    0.0000 C   0  0
    2.1042   -3.3542    0.0000 N   0  0
   -2.3583    0.2000    0.0000 C   0  0
   -0.8458    1.4583    0.0000 C   0  0
    1.6792   -2.6500    0.0000 C   0  0
    2.9736   -4.6984    0.0000 S   0  0
   -0.0208    1.4875    0.0000 C   0  0
   -0.4583    2.1875    0.0000 C   0  0
   -4.0083   -1.2000    0.0000 C   0  0
   -1.1458   -0.5250    0.0000 O   0  0
   -4.4333   -1.9000    0.0000 C   0  0
    0.8542   -1.2750    0.0000 C   0  0
   -4.4458   -3.3292    0.0000 O   0  0
    1.6542   -1.2542    0.0000 C   0  0
    2.0667   -1.9500    0.0000 C   0  0
  2  5  1  0
  3  1  1  0
  4  2  2  0
  5  1  1  0
  6  1  1  0
  7  2  1  0
  8  6  1  0
  9  5  1  0
 10  3  1  0
 11 22  1  0
 12  7  1  0
 13  4  1  0
 14  3  1  0
 15  6  2  0
 16 15  1  0
 17  1  1  0
 18 21  2  0
 19 11  1  0
 20  8  2  0
 21 24  1  0
 22 17  1  0
 23 19  1  0
 24 12  1  0
 25 18  2  0
 26 23  1  0
 27 23  1  0
 28 15  1  0
 29  3  1  0
 30 28  2  0
 31 13  1  0
 32 20  1  0
 33 31  2  0
 34 24  2  0
  8  9  1  0
 14  4  1  0
 11 10  1  0
 16 10  1  0
 30 20  1  0
 12 13  2  0
 27 26  1  0
 33 34  1  0
M  END