
          11280715302D 1   1.00000     0.00000     0

 39 43  0     0  0            999 V2000
   -0.8458    3.2500    0.0000 C   0  0  0  0  0  0           0  0  0
   -1.5083    2.7708    0.0000 N   0  0  3  0  0  0           0  0  0
   -2.1750    3.2458    0.0000 N   0  0  0  0  0  0           0  0  0
   -1.1000    4.0292    0.0000 C   0  0  0  0  0  0           0  0  0
   -1.9250    4.0292    0.0000 C   0  0  0  0  0  0           0  0  0
   -0.0583    3.0000    0.0000 N   0  0  0  0  0  0           0  0  0
    0.5542    3.5583    0.0000 C   0  0  0  0  0  0           0  0  0
    1.9500    3.8583    0.0000 C   0  0  0  0  0  0           0  0  0
    1.3417    3.3083    0.0000 N   0  0  0  0  0  0           0  0  0
    2.7292    3.6083    0.0000 C   0  0  0  0  0  0           0  0  0
    3.3500    4.1542    0.0000 C   0  0  0  0  0  0           0  0  0
   -1.5000    1.9458    0.0000 C   0  0  0  0  0  0           0  0  0
   -2.4125    4.6917    0.0000 C   0  0  3  0  0  0           0  0  0
    5.9667    5.5625    0.0000 N   0  0  3  0  0  0           0  0  0
    3.1750    4.9625    0.0000 C   0  0  0  0  0  0           0  0  0
    0.3792    4.3542    0.0000 O   0  0  0  0  0  0           0  0  0
    1.7750    4.6542    0.0000 C   0  0  0  0  0  0           0  0  0
    2.3792    5.2125    0.0000 C   0  0  0  0  0  0           0  0  0
    7.5292    5.0417    0.0000 O   0  0  0  0  0  0           0  0  0
   -2.2125    1.5250    0.0000 C   0  0  0  0  0  0           0  0  0
   -0.7875    1.5333    0.0000 C   0  0  0  0  0  0           0  0  0
   -1.4958    0.2958    0.0000 C   0  0  0  0  0  0           0  0  0
   -1.4875   -0.5375    0.0000 N   0  0  0  0  0  0           0  0  0
   -2.2125    0.7000    0.0000 C   0  0  0  0  0  0           0  0  0
   -0.7833    0.7125    0.0000 C   0  0  0  0  0  0           0  0  0
    3.7875    5.5167    0.0000 O   0  0  0  0  0  0           0  0  0
    5.1792    5.8167    0.0000 C   0  0  0  0  0  0           0  0  0
    4.5667    5.2625    0.0000 C   0  0  0  0  0  0           0  0  0
    6.1375    4.7500    0.0000 C   0  0  0  0  0  0           0  0  0
    6.5750    6.1042    0.0000 C   0  0  0  0  0  0           0  0  0
    2.9042    2.7958    0.0000 C   0  0  0  0  0  0           0  0  0
    4.1375    3.9208    0.0000 C   0  0  0  0  0  0           0  0  0
   -3.2333    4.6042    0.0000 C   0  0  0  0  0  0           0  0  0
   -3.0000    5.2792    0.0000 C   0  0  0  0  0  0           0  0  0
   -2.0833    5.4500    0.0000 C   0  0  0  0  0  0           0  0  0
    6.9167    4.4917    0.0000 C   0  0  0  0  0  0           0  0  0
    7.3625    5.8542    0.0000 C   0  0  0  0  0  0           0  0  0
    4.3125    3.1083    0.0000 C   0  0  0  0  0  0           0  0  0
    3.6917    2.5458    0.0000 C   0  0  0  0  0  0           0  0  0
  2  1  1  0     0  0
  3  2  1  0     0  0
  4  1  2  0     0  0
  5  4  1  0     0  0
  6  1  1  0     0  0
  7  6  1  0     0  0
  8  9  1  0     0  0
  9  7  1  0     0  0
 10  8  2  0     0  0
 11 10  1  0     0  0
 12  2  1  0     0  0
 13  5  1  0     0  0
 14 27  1  0     0  0
 15 18  1  0     0  0
 16  7  2  0     0  0
 17  8  1  0     0  0
 18 17  2  0     0  0
 19 37  1  0     0  0
 20 12  2  0     0  0
 21 12  1  0     0  0
 22 25  1  0     0  0
 23 22  1  0     0  0
 24 20  1  0     0  0
 25 21  2  0     0  0
 26 15  1  0     0  0
 27 28  1  0     0  0
 28 26  1  0     0  0
 29 14  1  0     0  0
 30 14  1  0     0  0
 31 10  1  0     0  0
 32 11  1  0     0  0
 33 13  1  0     0  0
 34 13  1  0     0  0
 35 13  1  0     0  0
 36 29  1  0     0  0
 37 30  1  0     0  0
 38 39  1  0     0  0
 39 31  2  0     0  0
  3  5  2  0     0  0
 22 24  2  0     0  0
 15 11  2  0     0  0
 32 38  2  0     0  0
 19 36  1  0     0  0
M  END