
          11290713132D 1   1.00000     0.00000     0

 21 23  0     0  0            999 V2000
   -4.7830  -12.5158    0.0000 O   0  0  0  0  0  0           0  0  0
   -5.4563  -13.0024    0.0000 C   0  0  0  0  0  0           0  0  0
   -5.1996  -13.7907    0.0000 C   0  0  0  0  0  0           0  0  0
   -4.3706  -13.7907    0.0000 C   0  0  0  0  0  0           0  0  0
   -4.1138  -13.0024    0.0000 C   0  0  0  0  0  0           0  0  0
   -3.3290  -12.7479    0.0000 C   0  0  0  0  0  0           0  0  0
   -2.6657  -13.2354    0.0000 N   0  0  0  0  0  0           0  0  0
   -1.9972  -12.7505    0.0000 C   0  0  0  0  0  0           0  0  0
   -2.2532  -11.9651    0.0000 N   0  0  0  0  0  0           0  0  0
   -3.0792  -11.9673    0.0000 N   0  0  0  0  0  0           0  0  0
   -1.2126  -13.0054    0.0000 S   0  0  0  0  0  0           0  0  0
   -0.5997  -12.4534    0.0000 C   0  0  0  0  0  0           0  0  0
    0.1850  -12.7082    0.0000 C   0  0  0  0  0  0           0  0  0
    0.7979  -12.1562    0.0000 C   0  0  0  0  0  0           0  0  0
    0.3566  -13.5151    0.0000 O   0  0  0  0  0  0           0  0  0
    1.5793  -12.4152    0.0000 C   0  0  0  0  0  0           0  0  0
    2.1919  -11.8639    0.0000 C   0  0  0  0  0  0           0  0  0
    2.0206  -11.0561    0.0000 C   0  0  0  0  0  0           0  0  0
    1.2311  -10.8024    0.0000 C   0  0  0  0  0  0           0  0  0
    0.6219  -11.3553    0.0000 C   0  0  0  0  0  0           0  0  0
    2.6329  -10.5032    0.0000 Br  0  0  0  0  0  0           0  0  0
 10  6  2  0     0  0
  5  1  1  0     0  0
  8 11  1  0     0  0
  2  3  2  0     0  0
 11 12  1  0     0  0
  5  6  1  0     0  0
 12 13  1  0     0  0
  7  8  1  0     0  0
 13 14  1  0     0  0
 13 15  2  0     0  0
  1  2  1  0     0  0
 14 16  2  0     0  0
  3  4  1  0     0  0
 16 17  1  0     0  0
  4  5  2  0     0  0
 17 18  2  0     0  0
  6  7  1  0     0  0
 18 19  1  0     0  0
  8  9  2  0     0  0
 19 20  2  0     0  0
 20 14  1  0     0  0
  9 10  1  0     0  0
 18 21  1  0     0  0
M  END