
          11280715052D 1   1.00000     0.00000     0

 20 21  0     0  0            999 V2000
    0.3625   -0.2167    0.0000 S   0  0  3  0  0  0           0  0  0
   -3.3333   -0.3792    0.0000 N   0  0  0  0  0  0           0  0  0
    0.8917   -0.4917    0.0000 C   0  0  0  0  0  0           0  0  0
   -3.2833    0.5958    0.0000 N   0  0  0  0  0  0           0  0  0
   -3.6583    0.1208    0.0000 C   0  0  0  0  0  0           0  0  0
   -2.7500   -0.2167    0.0000 C   0  0  0  0  0  0           0  0  0
    0.0125    0.4833    0.0000 O   0  0  0  0  0  0           0  0  0
    0.7000    0.4833    0.0000 O   0  0  0  0  0  0           0  0  0
   -0.1583   -0.5167    0.0000 N   0  0  0  0  0  0           0  0  0
   -2.7208    0.3833    0.0000 C   0  0  0  0  0  0           0  0  0
    1.3917   -0.1792    0.0000 C   0  0  0  0  0  0           0  0  0
    0.9167   -1.0792    0.0000 C   0  0  0  0  0  0           0  0  0
    1.9542   -1.0417    0.0000 C   0  0  0  0  0  0           0  0  0
    1.4500   -1.3542    0.0000 C   0  0  0  0  0  0           0  0  0
    1.9292   -0.4542    0.0000 C   0  0  0  0  0  0           0  0  0
    2.4875   -1.3250    0.0000 F   0  0  0  0  0  0           0  0  0
   -2.2333   -0.5167    0.0000 C   0  0  0  0  0  0           0  0  0
   -0.6750   -0.2167    0.0000 C   0  0  0  0  0  0           0  0  0
   -1.7208   -0.2167    0.0000 C   0  0  0  0  0  0           0  0  0
   -1.1958   -0.5167    0.0000 C   0  0  0  0  0  0           0  0  0
  2  6  1  0     0  0
  3  1  1  0     0  0
  4 10  1  0     0  0
  5  2  2  0     0  0
  6 17  1  0     0  0
  7  1  2  0     0  0
  8  1  2  0     0  0
  9  1  1  0     0  0
 10  6  2  0     0  0
 11  3  2  0     0  0
 12  3  1  0     0  0
 13 14  1  0     0  0
 14 12  2  0     0  0
 15 11  1  0     0  0
 16 13  1  0     0  0
 17 19  1  0     0  0
 18  9  1  0     0  0
 19 20  1  0     0  0
 20 18  1  0     0  0
 15 13  2  0     0  0
  4  5  1  0     0  0
M  END