
  CDK    9/16/09,9:59

 17 18  0  0  0  0  0  0  0  0999 V2000
   -3.4863  -18.5722    0.0000 C   0  0  0  0  0  0  0  0  0  0  0  0
   -3.8413  -19.3075    0.0000 C   0  0  0  0  0  0  0  0  0  0  0  0
   -4.0497  -16.4702    0.0000 C   0  0  0  0  0  0  0  0  0  0  0  0
   -3.5861  -17.1535    0.0000 N   0  0  0  0  0  0  0  0  0  0  0  0
   -3.9481  -17.8921    0.0000 C   0  0  0  0  0  0  0  0  0  0  0  0
   -3.6864  -15.7224    0.0000 C   0  0  0  0  0  0  0  0  0  0  0  0
   -3.6851  -14.3878    0.0000 N   0  0  0  0  0  0  0  0  0  0  0  0
   -4.1672  -15.0603    0.0000 C   0  0  0  0  0  0  0  0  0  0  0  0
   -2.8993  -14.6439    0.0000 C   0  0  0  0  0  0  0  0  0  0  0  0
   -2.9013  -15.4685    0.0000 C   0  0  0  0  0  0  0  0  0  0  0  0
   -2.1852  -15.8850    0.0000 N   0  0  0  0  0  0  0  0  0  0  0  0
   -1.4665  -15.4697    0.0000 C   0  0  0  0  0  0  0  0  0  0  0  0
   -1.4684  -14.6419    0.0000 N   0  0  0  0  0  0  0  0  0  0  0  0
   -2.1852  -14.2292    0.0000 C   0  0  0  0  0  0  0  0  0  0  0  0
   -2.1867  -13.4026    0.0000 O   0  0  0  0  0  0  0  0  0  0  0  0
   -3.3745  -19.9878    0.0000 C   0  0  0  0  0  0  0  0  0  0  0  0
   -3.7269  -20.7311    0.0000 O   0  0  0  0  0  0  0  0  0  0  0  0
  8  6  2  0  0  0  0 
  4  5  1  0  0  0  0 
  5  1  1  0  0  0  0 
  9 10  2  0  0  0  0 
  1  2  1  0  0  0  0 
 10 11  1  0  0  0  0 
  3  6  1  0  0  0  0 
 11 12  2  0  0  0  0 
  6 10  1  0  0  0  0 
 12 13  1  0  0  0  0 
 13 14  1  0  0  0  0 
 14  9  1  0  0  0  0 
  3  4  1  0  0  0  0 
 14 15  2  0  0  0  0 
  9  7  1  0  0  0  0 
  2 16  1  0  0  0  0 
  7  8  1  0  0  0  0 
 16 17  1  0  0  0  0 
M  END