
  SciTegic02271217242D

 40 43  0  0  0  0            999 V2000
   -0.6681  -13.3583    0.0000 C   0  0
   -0.6693  -14.1857    0.0000 C   0  0
    0.0456  -14.5985    0.0000 C   0  0
    0.7620  -14.1852    0.0000 C   0  0
    0.7591  -13.3547    0.0000 C   0  0
    0.0438  -12.9455    0.0000 C   0  0
    1.4721  -12.9395    0.0000 O   0  0
    2.1881  -13.3493    0.0000 C   0  0
    2.1878  -14.1719    0.0000 C   0  0
    2.9030  -14.5817    0.0000 C   0  0
    3.6169  -14.1664    0.0000 C   0  0
    3.6111  -13.3372    0.0000 C   0  0
    2.8954  -12.9312    0.0000 C   0  0
    4.3335  -14.5753    0.0000 Cl  0  0
    2.8880  -12.1062    0.0000 N   0  0
    3.5987  -11.6873    0.0000 S   0  0
    4.3169  -12.0934    0.0000 C   0  0
    3.1792  -10.9667    0.0000 O   0  0
    4.0042  -10.9667    0.0000 O   0  0
    4.3213  -12.9177    0.0000 C   0  0
    5.0386  -13.3238    0.0000 C   0  0
    5.7503  -12.9048    0.0000 C   0  0
    5.7402  -12.0756    0.0000 C   0  0
    5.0224  -11.6733    0.0000 C   0  0
    6.4690  -13.3099    0.0000 Cl  0  0
   -1.3840  -14.5976    0.0000 C   0  0
   -2.0982  -14.1845    0.0000 N   0  0
   -1.3847  -15.4226    0.0000 O   0  0
   -2.0975  -13.3595    0.0000 C   0  0
   -2.8117  -12.9465    0.0000 C   0  0
   -3.5265  -13.3584    0.0000 N   0  0
    6.4495  -11.6542    0.0000 C   0  0
    7.1691  -12.0578    0.0000 F   0  0
    6.4392  -10.8293    0.0000 F   0  0
    7.1583  -11.2375    0.0000 F   0  0
   -4.2772  -13.0235    0.0000 C   0  0
   -4.8297  -13.6362    0.0000 C   0  0
   -4.4177  -14.3510    0.0000 C   0  0
   -3.6107  -14.1800    0.0000 C   0  0
    1.4771  -14.5966    0.0000 C   0  0
  4  5  1  0
 17 20  2  0
  9 10  1  0
 20 21  1  0
  2  3  1  0
 21 22  2  0
 10 11  2  0
 22 23  1  0
  5  6  2  0
 23 24  2  0
 24 17  1  0
 11 12  1  0
 22 25  1  0
  6  1  1  0
  2 26  1  0
 12 13  2  0
 26 27  1  0
 13  8  1  0
 26 28  2  0
  1  2  2  0
 27 29  1  0
 11 14  1  0
 29 30  1  0
  5  7  1  0
 30 31  1  0
 13 15  1  0
 23 32  1  0
  3  4  2  0
 32 33  1  0
 15 16  1  0
 32 34  1  0
  7  8  1  0
 32 35  1  0
 31 36  1  0
 16 17  1  0
 16 18  2  0
  8  9  2  0
 36 37  1  0
 37 38  1  0
 38 39  1  0
 39 31  1  0
 16 19  2  0
  4 40  1  0
M  END