
  SciTegic12131016252D

 21 23  0  0  0  0            999 V2000
   16.4826  -19.7677    0.0000 C   0  0
   16.4689  -18.9428    0.0000 C   0  0
   17.2487  -18.6729    0.0000 C   0  0
   17.7466  -19.3340    0.0000 S   0  0
   17.2709  -20.0072    0.0000 C   0  0
   15.7529  -18.5335    0.0000 C   0  0
   15.0402  -18.9491    0.0000 C   0  0
   15.7494  -17.7085    0.0000 O   0  0
   15.0482  -19.7747    0.0000 C   0  0
   14.3362  -20.1901    0.0000 C   0  0
   13.6190  -19.7806    0.0000 C   0  0
   13.6181  -18.9512    0.0000 C   0  0
   14.3307  -18.5394    0.0000 C   0  0
   17.4895  -17.8837    0.0000 N   0  0
   12.9056  -20.1951    0.0000 Cl  0  0
   17.6646  -20.7301    0.0000 C   0  0
   17.2311  -21.4333    0.0000 C   0  0
   17.6233  -22.1583    0.0000 N   0  0
   18.4490  -22.1812    0.0000 C   0  0
   18.8808  -21.4731    0.0000 N   0  0
   18.4860  -20.7510    0.0000 C   0  0
  5  1  2  0
 10 11  2  0
  1  2  1  0
 11 12  1  0
  2  6  1  0
 12 13  2  0
 13  7  1  0
  3 14  1  0
  6  7  1  0
 11 15  1  0
  2  3  2  0
  6  8  2  0
 16 17  2  0
  3  4  1  0
 17 18  1  0
  7  9  2  0
 18 19  2  0
  4  5  1  0
 19 20  1  0
  9 10  1  0
 20 21  2  0
 21 16  1  0
  5 16  1  0
M  END