
  SciTegic12231509382D

 22 23  0  0  0  0            999 V2000
   12.3599  -15.3930    0.0000 C   0  0
   13.0742  -14.9804    0.0000 C   0  0
   13.0742  -14.1551    0.0000 C   0  0
   12.3599  -13.7424    0.0000 C   0  0
   11.6455  -14.1551    0.0000 C   0  0
   10.9311  -13.7424    0.0000 C   0  0
   10.2167  -14.1551    0.0000 C   0  0
   10.2167  -14.9804    0.0000 C   0  0
   10.9311  -15.3930    0.0000 C   0  0
   11.6455  -14.9804    0.0000 C   0  0
   12.3599  -16.2183    0.0000 S   0  0
   11.5346  -16.2183    0.0000 O   0  0
   13.1852  -16.2183    0.0000 O   0  0
   12.3599  -17.0436    0.0000 N   0  0
   10.9311  -12.9171    0.0000 Cl  0  0
   11.6455  -17.4563    0.0000 C   0  0
   10.9311  -17.0436    0.0000 C   0  0
   10.2167  -17.4563    0.0000 C   0  0
    9.5023  -17.0436    0.0000 C   0  0
    8.7879  -17.4563    0.0000 C   0  0
    8.0736  -17.0436    0.0000 C   0  0
    7.3592  -17.4563    0.0000 N   0  0
  1  2  1  0
  2  3  2  0
  3  4  1  0
  4  5  2  0
  5  6  1  0
  6  7  2  0
  7  8  1  0
  8  9  2  0
  9 10  1  0
  1 10  2  0
  5 10  1  0
 11 12  2  0
 11 13  2  0
 11 14  1  0
  1 11  1  0
  6 15  1  0
 16 17  1  0
 17 18  1  0
 18 19  1  0
 19 20  1  0
 20 21  1  0
 21 22  1  0
 14 16  1  0
M  END