
  SciTegic12171312592D

 23 24  0  0  0  0            999 V2000
    1.1091  -26.4337    0.0000 C   0  0
    1.1091  -27.2492    0.0000 C   0  0
    1.8170  -27.6611    0.0000 C   0  0
    2.5250  -27.2492    0.0000 C   0  0
    2.5250  -26.4337    0.0000 C   0  0
    1.8170  -26.0218    0.0000 C   0  0
    3.2371  -27.6611    0.0000 C   0  0
    3.9450  -27.2492    0.0000 N   0  0
    3.9450  -26.4337    0.0000 C   0  0
    3.2371  -26.0218    0.0000 C   0  0
    3.2371  -28.4804    0.0000 Cl  0  0
    3.2371  -25.2025    0.0000 O   0  0
    4.6526  -26.0220    0.0000 C   0  0
    4.6526  -25.2027    0.0000 O   0  0
    5.3643  -26.4337    0.0000 N   0  0
    6.0719  -26.0220    0.0000 C   0  0  2  0  0  0
    6.7795  -26.4337    0.0000 C   0  0
    6.0718  -25.2028    0.0000 C   0  0
    7.4871  -26.0220    0.0000 O   0  0
    6.7795  -27.2488    0.0000 O   0  0
    6.7796  -24.7941    0.0000 C   0  0
    7.4873  -25.2027    0.0000 O   0  0
    6.7797  -23.9769    0.0000 O   0  0
  1  2  2  0
  2  3  1  0
  3  4  2  0
  4  5  1  0
  5  6  2  0
  6  1  1  0
  4  7  1  0
  7  8  2  0
  8  9  1  0
  9 10  2  0
 10  5  1  0
  7 11  1  0
 10 12  1  0
  9 13  1  0
 13 14  2  0
 13 15  1  0
 15 16  1  0
 16 17  1  0
 16 18  1  1
 17 19  1  0
 17 20  2  0
 18 21  1  0
 21 22  2  0
 21 23  1  0
M  END