
  CDK    9/16/09,9:46

110116  0  0  0  0  0  0  0  0999 V2000
   16.5919  -22.9769    0.0000 N   0  0  0  0  0  0  0  0  0  0  0  0
   16.7275  -23.7651    0.0000 C   0  0  0  0  0  0  0  0  0  0  0  0
   18.1100  -23.3357    0.0000 O   0  0  0  0  0  0  0  0  0  0  0  0
   17.5300  -23.9195    0.0000 C   0  0  0  0  0  0  0  0  0  0  0  0
   16.1419  -24.3594    0.0000 C   0  0  0  0  0  0  0  0  0  0  0  0
   16.3611  -25.1473    0.0000 S   0  0  0  0  0  0  0  0  0  0  0  0
   17.7730  -24.7070    0.0000 O   0  0  0  0  0  0  0  0  0  0  0  0
   13.2008  -21.1289    0.0000 N   0  0  0  0  0  0  0  0  0  0  0  0
   13.3268  -21.9204    0.0000 C   0  0  0  0  0  0  0  0  0  0  0  0
   14.7157  -21.4845    0.0000 O   0  0  0  0  0  0  0  0  0  0  0  0
   14.1358  -22.0683    0.0000 C   0  0  0  0  0  0  0  0  0  0  0  0
   12.7476  -22.5082    0.0000 C   0  0  0  0  0  0  0  0  0  0  0  0
   14.3824  -22.8546    0.0000 N   0  0  0  0  0  0  0  0  0  0  0  0
   11.4580  -19.9736    0.0000 N   0  0  0  0  0  0  0  0  0  0  0  0
   12.2480  -20.0916    0.0000 C   0  0  0  0  0  0  0  0  0  0  0  0
   11.8349  -21.4833    0.0000 O   0  0  0  0  0  0  0  0  0  0  0  0
   12.4105  -20.8952    0.0000 C   0  0  0  0  0  0  0  0  0  0  0  0
   12.8276  -19.5043    0.0000 C   0  0  0  0  0  0  0  0  0  0  0  0
   13.6217  -19.7091    0.0000 C   0  0  0  0  0  0  0  0  0  0  0  0
   14.1974  -19.1258    0.0000 C   0  0  0  0  0  0  0  0  0  0  0  0
   13.8404  -20.5037    0.0000 C   0  0  0  0  0  0  0  0  0  0  0  0
   13.8945  -23.5138    0.0000 C   0  0  0  0  0  0  0  0  0  0  0  0
   14.3720  -24.1854    0.0000 C   0  0  0  0  0  0  0  0  0  0  0  0
   15.1584  -23.9387    0.0000 C   0  0  0  0  0  0  0  0  0  0  0  0
   15.1667  -23.1147    0.0000 C   0  0  0  0  0  0  0  0  0  0  0  0
   15.8373  -22.6356    0.0000 C   0  0  0  0  0  0  0  0  0  0  0  0
   15.7577  -21.8154    0.0000 O   0  0  0  0  0  0  0  0  0  0  0  0
   12.7456  -23.3324    0.0000 C   0  0  0  0  0  0  0  0  0  0  0  0
   13.4607  -23.7443    0.0000 C   0  0  0  0  0  0  0  0  0  0  0  0
   13.4590  -24.5678    0.0000 C   0  0  0  0  0  0  0  0  0  0  0  0
   12.7437  -24.9789    0.0000 C   0  0  0  0  0  0  0  0  0  0  0  0
   12.0286  -24.5607    0.0000 C   0  0  0  0  0  0  0  0  0  0  0  0
   12.0338  -23.7386    0.0000 C   0  0  0  0  0  0  0  0  0  0  0  0
   12.7406  -25.8030    0.0000 O   0  0  0  0  0  0  0  0  0  0  0  0
   11.7324  -18.5738    0.0000 C   0  0  0  0  0  0  0  0  0  0  0  0
   12.5531  -18.6493    0.0000 C   0  0  0  0  0  0  0  0  0  0  0  0
   12.8784  -17.8921    0.0000 S   0  0  0  0  0  0  0  0  0  0  0  0
   12.9428  -16.8838    0.0000 H   0  0  0  0  0  0  0  0  0  0  0  0
   11.1889  -19.1933    0.0000 C   0  0  0  0  0  0  0  0  0  0  0  0
   10.3807  -19.0326    0.0000 O   0  0  0  0  0  0  0  0  0  0  0  0
   11.5505  -17.7699    0.0000 N   0  0  0  0  0  0  0  0  0  0  0  0
   12.2563  -17.3505    0.0000 C   0  0  0  0  0  0  0  0  0  0  0  0
   12.2459  -16.5341    0.0000 C   0  0  0  0  0  0  0  0  0  0  0  0
   11.5313  -16.1309    0.0000 C   0  0  0  0  0  0  0  0  0  0  0  0
   10.8256  -16.5504    0.0000 C   0  0  0  0  0  0  0  0  0  0  0  0
   10.8344  -17.3730    0.0000 C   0  0  0  0  0  0  0  0  0  0  0  0
   10.1266  -17.7952    0.0000 O   0  0  0  0  0  0  0  0  0  0  0  0
   10.1071  -16.1467    0.0000 N   0  0  0  0  0  0  0  0  0  0  0  0
    8.0369  -16.5482    0.0000 N   0  0  0  0  0  0  0  0  0  0  0  0
    8.6915  -16.0731    0.0000 C   0  0  0  0  0  0  0  0  0  0  0  0
    9.3837  -17.3678    0.0000 O   0  0  0  0  0  0  0  0  0  0  0  0
    9.3806  -16.5357    0.0000 C   0  0  0  0  0  0  0  0  0  0  0  0
    8.6918  -15.2388    0.0000 C   0  0  0  0  0  0  0  0  0  0  0  0
    3.8202  -16.5482    0.0000 N   0  0  0  0  0  0  0  0  0  0  0  0
    4.4701  -16.0731    0.0000 C   0  0  0  0  0  0  0  0  0  0  0  0
    5.1578  -17.3632    0.0000 O   0  0  0  0  0  0  0  0  0  0  0  0
    5.1547  -16.5357    0.0000 C   0  0  0  0  0  0  0  0  0  0  0  0
    5.8818  -16.1478    0.0000 N   0  0  0  0  0  0  0  0  0  0  0  0
    1.7587  -16.1478    0.0000 N   0  0  0  0  0  0  0  0  0  0  0  0
    2.4086  -16.6231    0.0000 C   0  0  0  0  0  0  0  0  0  0  0  0
    3.0962  -15.3328    0.0000 O   0  0  0  0  0  0  0  0  0  0  0  0
    3.0931  -16.1603    0.0000 C   0  0  0  0  0  0  0  0  0  0  0  0
    2.4090  -17.4527    0.0000 C   0  0  0  0  0  0  0  0  0  0  0  0
    3.1229  -17.8645    0.0000 O   0  0  0  0  0  0  0  0  0  0  0  0
    1.6954  -17.8651    0.0000 C   0  0  0  0  0  0  0  0  0  0  0  0
    6.6254  -16.6231    0.0000 C   0  0  0  0  0  0  0  0  0  0  0  0
    7.3129  -15.3328    0.0000 O   0  0  0  0  0  0  0  0  0  0  0  0
    7.3098  -16.1603    0.0000 C   0  0  0  0  0  0  0  0  0  0  0  0
    6.6257  -17.4527    0.0000 C   0  0  0  0  0  0  0  0  0  0  0  0
    7.3516  -18.6904    0.0000 N   0  0  0  0  0  0  0  0  0  0  0  0
    8.1379  -18.9371    0.0000 C   0  0  0  0  0  0  0  0  0  0  0  0
    8.6155  -18.2654    0.0000 N   0  0  0  0  0  0  0  0  0  0  0  0
    8.1243  -17.6037    0.0000 C   0  0  0  0  0  0  0  0  0  0  0  0
    7.3431  -17.8663    0.0000 C   0  0  0  0  0  0  0  0  0  0  0  0
   -2.4562  -16.1763    0.0000 N   0  0  0  0  0  0  0  0  0  0  0  0
   -1.8063  -16.6514    0.0000 C   0  0  0  0  0  0  0  0  0  0  0  0
   -1.1141  -15.3567    0.0000 O   0  0  0  0  0  0  0  0  0  0  0  0
   -1.1172  -16.1888    0.0000 C   0  0  0  0  0  0  0  0  0  0  0  0
   -1.8059  -17.4858    0.0000 C   0  0  0  0  0  0  0  0  0  0  0  0
   -1.0884  -18.7338    0.0000 C   0  0  0  0  0  0  0  0  0  0  0  0
   -1.0884  -17.9051    0.0000 C   0  0  0  0  0  0  0  0  0  0  0  0
   -0.3701  -17.4884    0.0000 C   0  0  0  0  0  0  0  0  0  0  0  0
    0.3482  -17.9051    0.0000 C   0  0  0  0  0  0  0  0  0  0  0  0
    0.3482  -18.7338    0.0000 C   0  0  0  0  0  0  0  0  0  0  0  0
   -0.3701  -19.1459    0.0000 C   0  0  0  0  0  0  0  0  0  0  0  0
   -0.3855  -16.5767    0.0000 N   0  0  0  0  0  0  0  0  0  0  0  0
   -2.4440  -13.6333    0.0000 N   0  0  0  0  0  0  0  0  0  0  0  0
   -4.5316  -16.5767    0.0000 N   0  0  0  0  0  0  0  0  0  0  0  0
   -3.8770  -16.0969    0.0000 C   0  0  0  0  0  0  0  0  0  0  0  0
   -3.1848  -17.3962    0.0000 O   0  0  0  0  0  0  0  0  0  0  0  0
   -3.1879  -16.5642    0.0000 C   0  0  0  0  0  0  0  0  0  0  0  0
   -3.8767  -15.2626    0.0000 C   0  0  0  0  0  0  0  0  0  0  0  0
   -3.1582  -14.8509    0.0000 C   0  0  0  0  0  0  0  0  0  0  0  0
   -3.1579  -14.0221    0.0000 C   0  0  0  0  0  0  0  0  0  0  0  0
   -2.4217  -12.8049    0.0000 C   0  0  0  0  0  0  0  0  0  0  0  0
   -1.6970  -12.4124    0.0000 N   0  0  0  0  0  0  0  0  0  0  0  0
   -3.1286  -12.3737    0.0000 N   0  0  0  0  0  0  0  0  0  0  0  0
    1.0437  -16.5663    0.0000 C   0  0  0  0  0  0  0  0  0  0  0  0
    0.3257  -16.1544    0.0000 C   0  0  0  0  0  0  0  0  0  0  0  0
    0.3187  -15.3263    0.0000 C   0  0  0  0  0  0  0  0  0  0  0  0
   -0.5094  -15.3333    0.0000 C   0  0  0  0  0  0  0  0  0  0  0  0
    0.3157  -14.4960    0.0000 C   0  0  0  0  0  0  0  0  0  0  0  0
    1.1490  -15.3233    0.0000 S   0  0  0  0  0  0  0  0  0  0  0  0
    1.0507  -17.3943    0.0000 O   0  0  0  0  0  0  0  0  0  0  0  0
    9.4057  -14.8270    0.0000 C   0  0  0  0  0  0  0  0  0  0  0  0
   10.1165  -15.2427    0.0000 C   0  0  0  0  0  0  0  0  0  0  0  0
   10.8299  -14.8315    0.0000 C   0  0  0  0  0  0  0  0  0  0  0  0
   10.8307  -14.0065    0.0000 C   0  0  0  0  0  0  0  0  0  0  0  0
   10.1122  -13.5944    0.0000 C   0  0  0  0  0  0  0  0  0  0  0  0
    9.4017  -14.0079    0.0000 C   0  0  0  0  0  0  0  0  0  0  0  0
 26 27  2  0  0  0  0 
 54 55  1  0  0  0  0 
 55 57  1  0  0  0  0 
 57 56  2  0  0  0  0 
 12 28  1  0  0  0  0 
 14 15  1  0  0  0  0 
 57 58  1  0  0  0  0 
 28 29  2  0  0  0  0 
 15 17  1  0  0  0  0 
 29 30  1  0  0  0  0 
 60 59  1  6  0  0  0 
 60 62  1  0  0  0  0 
 62 61  2  0  0  0  0 
 60 63  1  0  0  0  0 
 17 16  2  0  0  0  0 
 30 31  2  0  0  0  0 
 15 18  1  1  0  0  0 
 63 64  1  6  0  0  0 
 31 32  1  0  0  0  0 
 63 65  1  0  0  0  0 
 62 54  1  0  0  0  0 
  1  2  1  0  0  0  0 
 32 33  2  0  0  0  0 
 58 66  1  0  0  0  0 
 66 68  1  0  0  0  0 
 68 67  2  0  0  0  0 
 66 69  1  6  0  0  0 
 33 28  1  0  0  0  0 
  8  9  1  0  0  0  0 
 69 74  1  0  0  0  0 
 31 34  1  0  0  0  0 
  9 11  1  0  0  0  0 
 70 71  1  0  0  0  0 
 18 19  1  0  0  0  0 
 71 72  2  0  0  0  0 
 11 10  2  0  0  0  0 
 72 73  1  0  0  0  0 
 41 35  1  0  0  0  0 
 73 74  2  0  0  0  0 
 74 70  1  0  0  0  0 
 68 49  1  0  0  0  0 
 35 36  1  0  0  0  0 
 36 37  1  0  0  0  0 
 37 42  1  0  0  0  0 
 75 76  1  0  0  0  0 
 76 78  1  0  0  0  0 
 78 77  2  0  0  0  0 
 76 79  1  6  0  0  0 
 19 20  1  0  0  0  0 
 42 38  1  6  0  0  0 
 79 81  1  0  0  0  0 
  9 12  1  6  0  0  0 
 35 39  1  6  0  0  0 
 80 81  2  0  0  0  0 
 19 21  1  0  0  0  0 
 81 82  1  0  0  0  0 
 39 40  2  0  0  0  0 
 82 83  2  0  0  0  0 
 41 42  1  0  0  0  0 
 83 84  1  0  0  0  0 
 17  8  1  0  0  0  0 
 84 85  2  0  0  0  0 
 85 80  1  0  0  0  0 
 13 22  1  0  0  0  0 
 78 86  1  0  0  0  0 
  2  4  1  0  0  0  0 
  5  6  1  0  0  0  0 
  4  3  2  0  0  0  0 
 11 13  1  0  0  0  0 
 88 89  1  0  0  0  0 
 89 91  1  0  0  0  0 
 91 90  2  0  0  0  0 
 89 92  1  1  0  0  0 
 41 46  1  0  0  0  0 
 42 43  1  0  0  0  0 
 43 44  1  0  0  0  0 
 92 93  1  0  0  0  0 
 44 45  1  0  0  0  0 
 93 94  1  0  0  0  0 
 94 87  1  0  0  0  0 
 91 75  1  0  0  0  0 
 45 46  1  0  0  0  0 
 87 95  1  0  0  0  0 
 22 23  1  0  0  0  0 
 95 96  2  0  0  0  0 
 46 47  2  0  0  0  0 
 95 97  1  0  0  0  0 
 23 24  1  0  0  0  0 
 45 48  1  6  0  0  0 
 39 14  1  0  0  0  0 
 24 25  1  0  0  0  0 
 25 13  1  0  0  0  0 
  4  7  1  0  0  0  0 
 49 50  1  0  0  0  0 
 99 86  1  6  0  0  0 
 98 99  1  0  0  0  0 
 99100  1  0  0  0  0 
100101  1  0  0  0  0 
100102  1  0  0  0  0 
100103  1  0  0  0  0 
 98104  2  0  0  0  0 
 98 59  1  0  0  0  0 
 50 52  1  0  0  0  0 
 53105  1  0  0  0  0 
 52 51  2  0  0  0  0 
105106  2  0  0  0  0 
 50 53  1  1  0  0  0 
106107  1  0  0  0  0 
 25 26  1  6  0  0  0 
107108  2  0  0  0  0 
 26  1  1  0  0  0  0 
108109  1  0  0  0  0 
  2  5  1  6  0  0  0 
109110  2  0  0  0  0 
110105  1  0  0  0  0 
 52 48  1  0  0  0  0 
M  END