
          11280714552D 1   1.00000     0.00000     0

 33 37  0     0  0            999 V2000
    2.2917   -0.3667    0.0000 N   0  0  3  0  0  0           0  0  0
    3.0792   -0.0792    0.0000 C   0  0  0  0  0  0           0  0  0
    2.2417    0.9708    0.0000 N   0  0  0  0  0  0           0  0  0
    3.0292    0.7458    0.0000 C   0  0  0  0  0  0           0  0  0
    1.7792    0.2833    0.0000 C   0  0  0  0  0  0           0  0  0
    2.9792   -5.8625    0.0000 C   0  0  0  0  0  0           0  0  0
    4.3042   -6.0292    0.0000 N   0  0  0  0  0  0           0  0  0
    3.7042   -5.4667    0.0000 N   0  0  0  0  0  0           0  0  0
    3.9500   -6.7750    0.0000 N   0  0  0  0  0  0           0  0  0
    3.1292   -6.6667    0.0000 N   0  0  0  0  0  0           0  0  0
    2.0667   -1.1542    0.0000 C   0  0  0  0  0  0           0  0  0
    2.2292   -5.5042    0.0000 C   0  0  0  0  0  0           0  0  0
    1.6750   -4.9042    0.0000 C   0  0  0  0  0  0           0  0  0
    3.7417   -0.5667    0.0000 C   0  0  0  0  0  0           0  0  0
    1.9167   -4.1250    0.0000 C   0  0  0  0  0  0           0  0  0
    2.6375   -1.7500    0.0000 O   0  0  0  0  0  0           0  0  0
    3.7667   -1.0667    0.0000 O   0  0  0  0  0  0           0  0  0
    1.3625   -3.5042    0.0000 C   0  0  0  0  0  0           0  0  0
    2.7292   -3.9375    0.0000 C   0  0  0  0  0  0           0  0  0
    2.4042   -2.5417    0.0000 C   0  0  0  0  0  0           0  0  0
    3.6542    1.2833    0.0000 C   0  0  0  0  0  0           0  0  0
    0.9542    0.2583    0.0000 C   0  0  0  0  0  0           0  0  0
    2.9750   -3.1417    0.0000 C   0  0  0  0  0  0           0  0  0
    1.6042   -2.7250    0.0000 C   0  0  0  0  0  0           0  0  0
    1.9917   -6.2917    0.0000 C   0  0  0  0  0  0           0  0  0
    0.8750   -5.0792    0.0000 C   0  0  0  0  0  0           0  0  0
    4.5417   -0.3417    0.0000 C   0  0  0  0  0  0           0  0  0
    0.5167    0.9583    0.0000 C   0  0  0  0  0  0           0  0  0
    4.4667    1.1458    0.0000 C   0  0  0  0  0  0           0  0  0
    1.1875   -6.4792    0.0000 C   0  0  0  0  0  0           0  0  0
    0.6250   -5.8667    0.0000 C   0  0  0  0  0  0           0  0  0
    4.8542    0.4208    0.0000 C   0  0  0  0  0  0           0  0  0
   -0.3083    0.9208    0.0000 C   0  0  0  0  0  0           0  0  0
  2  1  1  0     0  0
  3  5  2  0     0  0
  4  2  2  0     0  0
  5  1  1  0     0  0
  6 12  1  0     0  0
  7  8  2  0     0  0
  8  6  1  0     0  0
  9 10  1  0     0  0
 10  6  2  0     0  0
 11  1  1  0     0  0
 12 13  2  0     0  0
 13 15  1  0     0  0
 14  2  1  0     0  0
 15 18  2  0     0  0
 16 11  1  0     0  0
 17 14  2  0     0  0
 18 24  1  0     0  0
 19 23  2  0     0  0
 20 16  1  0     0  0
 21  4  1  0     0  0
 22  5  1  0     0  0
 23 20  1  0     0  0
 24 20  2  0     0  0
 25 12  1  0     0  0
 26 13  1  0     0  0
 27 14  1  0     0  0
 28 22  1  0     0  0
 29 21  1  0     0  0
 30 31  1  0     0  0
 31 26  2  0     0  0
 32 27  1  0     0  0
 33 28  1  0     0  0
  4  3  1  0     0  0
 29 32  1  0     0  0
 19 15  1  0     0  0
 25 30  2  0     0  0
  9  7  1  0     0  0
M  END