
  SciTegic05061116452D

 35 39  0  0  0  0            999 V2000
    8.9232   -1.4555    0.0000 N   0  0
    9.6349   -1.0468    0.0000 C   0  0
    9.6349   -0.2218    0.0000 N   0  0
    8.9232    0.1946    0.0000 C   0  0
    8.2115   -1.0468    0.0000 C   0  0
    8.2115   -0.2173    0.0000 C   0  0
    7.4226    0.0392    0.0000 N   0  0
    6.9348   -0.6320    0.0000 C   0  0
    7.4225   -1.3031    0.0000 N   0  0
    7.1675   -2.0878    0.0000 C   0  0
    6.3605   -2.2593    0.0000 C   0  0
    6.1055   -3.0439    0.0000 O   0  0
    5.8084   -1.6462    0.0000 O   0  0
    8.9252    1.0197    0.0000 O   0  0
   10.3490   -1.4602    0.0000 N   0  0
   11.0640   -1.0486    0.0000 C   0  0
   11.7779   -1.4620    0.0000 C   0  0
    9.6406    1.4304    0.0000 C   0  0
   11.7724   -2.2853    0.0000 C   0  0
   12.4855   -2.6986    0.0000 C   0  0
   13.2015   -2.2869    0.0000 C   0  0
   13.1999   -1.4576    0.0000 C   0  0
   12.4861   -1.0480    0.0000 C   0  0
   13.9122   -2.6965    0.0000 C   0  0
   13.9104   -3.5225    0.0000 C   0  0
   14.6209   -3.9349    0.0000 C   0  0
   15.3377   -3.5258    0.0000 C   0  0
   15.3396   -2.6997    0.0000 C   0  0
   14.6246   -2.2829    0.0000 C   0  0
   10.3516    1.0133    0.0000 C   0  0
   11.0667    1.4234    0.0000 C   0  0
   11.0690    2.2494    0.0000 C   0  0
   10.3505    2.6634    0.0000 C   0  0
    9.6385    2.2510    0.0000 C   0  0
   11.7840    2.6611    0.0000 F   0  0
 16 17  1  0
  7  8  2  0
 14 18  1  0
  8  9  1  0
 17 19  2  0
  9  5  1  0
 19 20  1  0
  3  4  2  0
 20 21  2  0
  9 10  1  0
 21 22  1  0
  5  6  2  0
 22 23  2  0
 23 17  1  0
 24 25  1  0
 10 11  1  0
 11 12  1  0
  6  4  1  0
 11 13  2  0
  5  1  1  0
 24 29  1  0
 25 26  1  0
 26 27  1  0
 27 28  1  0
 28 29  1  0
 21 24  1  0
  4 14  1  0
 18 30  2  0
  1  2  2  0
 30 31  1  0
  2 15  1  0
 31 32  2  0
  2  3  1  0
 32 33  1  0
 15 16  1  0
 33 34  2  0
 34 18  1  0
  6  7  1  0
 32 35  1  0
M  END