
  CDK    6/4/10,11:41

 27 27  0  0  0  0  0  0  0  0999 V2000
   12.9218  -11.7396    0.0000 C   0  0  0  0  0  0  0  0  0  0  0  0
   12.9218  -12.5650    0.0000 C   0  0  0  0  0  0  0  0  0  0  0  0
   13.6348  -12.9757    0.0000 C   0  0  0  0  0  0  0  0  0  0  0  0
   14.3478  -12.5650    0.0000 C   0  0  0  0  0  0  0  0  0  0  0  0
   14.3478  -11.7396    0.0000 C   0  0  0  0  0  0  0  0  0  0  0  0
   13.6348  -11.3247    0.0000 O   0  0  0  0  0  0  0  0  0  0  0  0
   15.0645  -11.3310    0.0000 O   0  0  0  0  0  0  0  0  0  0  0  0
   12.2051  -11.3310    0.0000 C   0  0  0  0  0  0  0  0  0  0  0  0
   12.2027  -10.5054    0.0000 O   0  0  0  0  0  0  0  0  0  0  0  0
   12.2069  -12.9808    0.0000 O   0  0  0  0  0  0  0  0  0  0  0  0
   13.6348  -13.8012    0.0000 O   0  0  0  0  0  0  0  0  0  0  0  0
   15.0627  -12.9808    0.0000 N   0  0  0  0  0  0  0  0  0  0  0  0
   15.0615  -13.8064    0.0000 C   0  0  0  0  0  0  0  0  0  0  0  0
   15.7763  -14.2181    0.0000 C   0  0  0  0  0  0  0  0  0  0  0  0
   14.3454  -14.2161    0.0000 O   0  0  0  0  0  0  0  0  0  0  0  0
   11.4909  -12.5671    0.0000 C   0  0  0  0  0  0  0  0  0  0  0  0
   10.7801  -12.9829    0.0000 C   0  0  0  0  0  0  0  0  0  0  0  0
   11.4897  -11.7416    0.0000 O   0  0  0  0  0  0  0  0  0  0  0  0
   12.9193  -14.2119    0.0000 C   0  0  0  0  0  0  0  0  0  0  0  0
   12.9193  -15.0374    0.0000 O   0  0  0  0  0  0  0  0  0  0  0  0
   12.2039  -13.8012    0.0000 C   0  0  0  0  0  0  0  0  0  0  0  0
   12.9169  -10.0885    0.0000 C   0  0  0  0  0  0  0  0  0  0  0  0
   12.9145   -9.2631    0.0000 O   0  0  0  0  0  0  0  0  0  0  0  0
   13.6336  -10.5013    0.0000 C   0  0  0  0  0  0  0  0  0  0  0  0
   15.7787  -11.7437    0.0000 C   0  0  0  0  0  0  0  0  0  0  0  0
   16.4913  -11.3351    0.0000 C   0  0  0  0  0  0  0  0  0  0  0  0
   15.7763  -12.5692    0.0000 O   0  0  0  0  0  0  0  0  0  0  0  0
 13 14  1  0  0  0  0 
  5  7  1  0  0  0  0 
 13 15  2  0  0  0  0 
  1  2  1  0  0  0  0 
 10 16  1  0  0  0  0 
  1  8  1  1  0  0  0 
 16 17  1  0  0  0  0 
  1  6  1  0  0  0  0 
 16 18  2  0  0  0  0 
  8  9  1  0  0  0  0 
 11 19  1  0  0  0  0 
  2  3  1  0  0  0  0 
 19 20  2  0  0  0  0 
  2 10  1  1  0  0  0 
 19 21  1  0  0  0  0 
  3  4  1  0  0  0  0 
  9 22  1  0  0  0  0 
  3 11  1  1  0  0  0 
 22 23  2  0  0  0  0 
  4  5  1  0  0  0  0 
 22 24  1  0  0  0  0 
  4 12  1  6  0  0  0 
  7 25  1  0  0  0  0 
  5  6  1  0  0  0  0 
 25 26  1  0  0  0  0 
 12 13  1  0  0  0  0 
 25 27  2  0  0  0  0 
M  END