
  SciTegic02011310402D

 26 29  0  0  0  0            999 V2000
   -4.5306   -4.5333    0.0000 N   0  0
   -4.5318   -5.3607    0.0000 C   0  0
   -3.8169   -5.7735    0.0000 C   0  0
   -3.8187   -4.1205    0.0000 C   0  0
   -3.1034   -4.5297    0.0000 C   0  0
   -3.1046   -5.3627    0.0000 C   0  0
   -2.3877   -5.7780    0.0000 C   0  0
   -1.6650   -5.3648    0.0000 N   0  0
   -1.6638   -4.5317    0.0000 N   0  0
   -2.3853   -4.1119    0.0000 C   0  0
   -2.3900   -6.6030    0.0000 C   0  0
   -3.1056   -7.0135    0.0000 C   0  0
   -3.8163   -6.5942    0.0000 C   0  0
   -4.5314   -7.0040    0.0000 C   0  0
   -4.5342   -7.8299    0.0000 C   0  0
   -3.8158   -8.2442    0.0000 C   0  0
   -3.1036   -7.8320    0.0000 C   0  0
   -5.2493   -8.2413    0.0000 Cl  0  0
   -2.3852   -3.2869    0.0000 O   0  0
   -0.9483   -4.1210    0.0000 C   0  0
   -0.2349   -4.5352    0.0000 C   0  0  1  0  0  0
   -0.2220   -5.3574    0.0000 C   0  0
    0.5673   -5.5975    0.0000 C   0  0
    1.0396   -4.9209    0.0000 C   0  0
    0.5420   -4.2629    0.0000 N   0  0
    0.7803   -3.4730    0.0000 C   0  0
  2  3  1  0
 12 13  2  0
  3  6  2  0
 13 14  1  0
  1  2  2  0
 14 15  2  0
  5  4  2  0
 15 16  1  0
  4  1  1  0
 16 17  2  0
 17 12  1  0
  5 10  1  0
 15 18  1  0
  6  7  1  0
 10 19  2  0
  7  8  2  0
  9 20  1  0
  8  9  1  0
 21 20  1  6
 21 22  1  0
  9 10  1  0
  5  6  1  0
  7 11  1  0
 22 23  1  0
 23 24  1  0
 24 25  1  0
 25 21  1  0
 11 12  1  0
 25 26  1  0
M  END