
  SciTegic09081514182D

 70 77  0  0  0  0            999 V2000
    1.3581   -9.7420    0.0000 N   0  0
    1.3447   -8.2412    0.0000 C   0  0
    0.0388   -7.5016    0.0000 N   0  0
    2.3787   -7.6323    0.0000 S   0  0
    0.0254   -6.0008    0.0000 C   0  0
   -1.2788   -5.2598    0.0000 C   0  0
   -1.2891   -3.7598    0.0000 C   0  0
    0.0046   -3.0009    0.0000 C   0  0
    1.3089   -3.7420    0.0000 C   0  0
    1.3192   -5.2419    0.0000 C   0  0
    0.0000   -1.5002    0.0000 C   0  0
    0.0000    1.5002    0.0000 O   0  0
   -1.2989   -0.7501    0.0000 C   0  0
   -1.2989    0.7501    0.0000 C   0  0
   -2.5978    1.5002    0.0000 C   0  0
   -3.8968    0.7501    0.0000 C   0  0
   -3.8968   -0.7501    0.0000 C   0  0
   -2.5978   -1.5002    0.0000 C   0  0
    1.2806    0.7501    0.0000 C   0  0
    1.2806   -0.7501    0.0000 C   0  0
    2.5978   -1.5002    0.0000 C   0  0
    3.8968   -0.7501    0.0000 C   0  0
    3.8968    0.7501    0.0000 C   0  0
    2.5978    1.5002    0.0000 C   0  0
   -4.9360    1.3500    0.0000 O   0  0
   -2.5955   -3.0210    0.0000 C   0  0
   -3.6297   -3.6296    0.0000 O   0  0
   -2.6041   -2.0211    0.0000 O   0  0
    4.9360    1.3500    0.0000 O   0  0
   -1.1497  -21.7368    0.0000 C   0  0
    0.1481  -20.9845    0.0000 C   0  0
    0.1452  -19.4844    0.0000 C   0  0
   -1.1552  -18.7368    0.0000 C   0  0
   -2.4529  -19.4893    0.0000 C   0  0
   -2.4501  -20.9893    0.0000 C   0  0
   -3.7500  -21.7394    0.0000 N   0  0
   -5.0501  -20.9896    0.0000 C   0  0
   -1.1475  -22.9368    0.0000 C   0  0
   -6.3500  -21.7397    0.0000 C   0  0
   -5.0502  -19.7896    0.0000 O   0  0
   -7.6505  -20.9922    0.0000 C   0  0
   -8.9481  -21.7445    0.0000 C   0  0
   -8.9454  -23.2445    0.0000 C   0  0
   -7.6450  -23.9921    0.0000 C   0  0
   -6.3473  -23.2398    0.0000 C   0  0
    1.4504  -21.7304    0.0000 C   0  0
    1.4555  -23.2304    0.0000 C   0  0
    2.7571  -23.9759    0.0000 N   0  0
    4.0536  -23.2214    0.0000 C   0  0
    4.0485  -21.7214    0.0000 C   0  0
    2.7468  -20.9759    0.0000 N   0  0
  -10.2437  -23.9973    0.0000 C   0  0
  -11.2844  -23.3999    0.0000 C   0  0
  -10.2412  -25.1973    0.0000 C   0  0
  -11.2816  -24.5997    0.0000 C   0  0
    2.7613  -25.1759    0.0000 C   0  0
    5.0949  -23.8179    0.0000 O   0  0
    5.3441  -20.9639    0.0000 N   0  0
    5.3369  -19.4631    0.0000 C   0  0
    6.6307  -18.7041    0.0000 C   0  0
    6.6203  -17.2042    0.0000 C   0  0
    5.3162  -16.4630    0.0000 C   0  0
    4.0223  -17.2221    0.0000 C   0  0
    4.0327  -18.7221    0.0000 C   0  0
    5.3028  -14.9623    0.0000 C   0  0
    6.3368  -14.3533    0.0000 O   0  0
    3.9968  -14.2227    0.0000 N   0  0
    3.9834  -12.7219    0.0000 C   0  0
    2.6775  -11.9823    0.0000 C   0  0
    2.6641  -10.4816    0.0000 C   0  0
  1  2  1  0
  2  3  1  0
  2  4  2  0
  3  5  1  0
  5  6  2  0
  6  7  1  0
  7  8  2  0
  8  9  1  0
  9 10  2  0
 10  5  1  0
 11 20  1  0
 11 13  2  0
 19 12  1  0
 12 14  1  0
  8 11  1  0
 13 14  1  0
 13 18  1  0
 14 15  2  0
 15 16  1  0
 16 17  1  0
 17 18  2  0
 19 20  2  0
 20 21  1  0
 21 22  2  0
 22 23  1  0
 23 24  2  0
 24 19  1  0
 16 25  2  0
  7 26  1  0
 26 27  2  0
 26 28  1  0
 23 29  1  0
 30 31  2  0
 31 32  1  0
 32 33  2  0
 33 34  1  0
 34 35  2  0
 35 30  1  0
 35 36  1  0
 36 37  1  0
 30 38  1  0
 37 39  1  0
 37 40  2  0
 39 41  2  0
 41 42  1  0
 42 43  2  0
 43 44  1  0
 44 45  2  0
 45 39  1  0
 46 47  2  0
 47 48  1  0
 48 49  1  0
 49 50  1  0
 50 51  2  0
 51 46  1  0
 31 46  1  0
 43 52  1  0
 52 53  1  0
 52 54  1  0
 52 55  1  0
 48 56  1  0
 49 57  2  0
 50 58  1  0
 58 59  1  0
 59 60  2  0
 60 61  1  0
 61 62  2  0
 62 63  1  0
 63 64  2  0
 64 59  1  0
 62 65  1  0
 65 66  2  0
 65 67  1  0
 67 68  1  0
 68 69  1  0
 69 70  1  0
 70  1  1  0
M  END