
  SciTegic11201309402D

 41 45  0  0  1  0            999 V2000
   10.8537   -1.7516    0.0000 C   0  0
    9.4243   -1.7261    0.0000 N   0  0
   10.1471   -1.3258    0.0000 C   0  0  1  0  0  0
   10.1610   -0.5034    0.0000 C   0  0
    9.4544   -0.0776    0.0000 C   0  0
    8.7338   -0.4743    0.0000 C   0  0
    8.0271   -0.0486    0.0000 C   0  0
    8.0411    0.7739    0.0000 C   0  0
    7.3344    1.1997    0.0000 O   0  0
    8.7638    1.1742    0.0000 C   0  0
    9.4705    0.7485    0.0000 C   0  0
   10.1927    1.1473    0.0000 C   0  0
    8.7173   -1.3010    0.0000 C   0  0
   11.5758   -1.3525    0.0000 N   0  0
   10.8383   -2.5764    0.0000 O   0  0
   12.2794   -1.7797    0.0000 C   0  0  1  0  0  0
   12.9993   -1.3841    0.0000 C   0  0
   11.5864   -0.5282    0.0000 C   0  0
   12.3125   -0.1310    0.0000 C   0  0
   13.0165   -0.5583    0.0000 C   0  0
   13.7363   -0.1623    0.0000 C   0  0
   13.7535    0.6607    0.0000 C   0  0
   13.0447    1.0862    0.0000 C   0  0
   12.3278    0.6878    0.0000 C   0  0
   12.2617   -2.6046    0.0000 C   0  0
   11.5385   -3.0016    0.0000 O   0  0
   12.9671   -3.0324    0.0000 N   0  0
   13.6903   -2.6354    0.0000 C   0  0
   14.3957   -3.0632    0.0000 C   0  0
   14.4646   -3.8808    0.0000 N   0  0
   15.1567   -2.7395    0.0000 N   0  0
   15.6955   -3.3643    0.0000 C   0  0
   15.2650   -4.0672    0.0000 C   0  0
   15.6585   -4.7894    0.0000 C   0  0
   16.4824   -4.8099    0.0000 C   0  0
   16.9111   -4.1021    0.0000 C   0  0
   16.5151   -3.3828    0.0000 C   0  0
   15.3436   -1.9360    0.0000 C   0  0
   16.1330   -1.6960    0.0000 C   0  0
   16.3199   -0.8925    0.0000 O   0  0
   16.7354   -2.2597    0.0000 O   0  0
 19 20  2  0
  8 10  1  0
 20 21  1  0
 10 11  2  0
 21 22  2  0
  5 11  1  0
 22 23  1  0
 23 24  2  0
 24 19  1  0
 11 12  1  0
 16 25  1  1
  6 13  1  0
 25 26  2  0
  3  2  1  1
 25 27  1  0
  1  3  1  0
 27 28  1  0
  1 14  1  0
 28 29  1  0
 29 30  2  0
  3  4  1  0
  1 15  2  0
 30 33  1  0
 32 31  1  0
 31 29  1  0
 16 14  1  0
  4  5  1  0
 32 33  2  0
  5  6  2  0
 33 34  1  0
  6  7  1  0
 34 35  2  0
 14 18  1  0
 35 36  1  0
 16 17  1  0
 36 37  2  0
 37 32  1  0
 17 20  1  0
 31 38  1  0
 19 18  1  0
 38 39  1  0
  7  8  2  0
 39 40  2  0
  8  9  1  0
 39 41  1  0
M  END