
  SciTegic12231509382D

 14 14  0  0  0  0            999 V2000
    5.4943   -5.4999    0.0000 C   0  0
    5.4932   -6.3272    0.0000 C   0  0
    6.2079   -6.7401    0.0000 C   0  0
    6.9244   -6.3268    0.0000 C   0  0
    6.9215   -5.4962    0.0000 C   0  0
    6.2061   -5.0871    0.0000 C   0  0
    4.7798   -5.0876    0.0000 O   0  0
    7.6344   -5.0810    0.0000 C   0  0
    8.3504   -5.4909    0.0000 C   0  0
    7.6313   -4.2561    0.0000 O   0  0
    9.0633   -5.0757    0.0000 N   0  0
    9.7793   -5.4854    0.0000 C   0  0
   10.4922   -5.0703    0.0000 C   0  0
    9.7824   -6.3104    0.0000 C   0  0
  1  2  2  0
  2  3  1  0
  3  4  2  0
  4  5  1  0
  5  6  2  0
  6  1  1  0
  1  7  1  0
  5  8  1  0
  8  9  1  0
  8 10  1  0
  9 11  1  0
 11 12  1  0
 12 13  1  0
 12 14  1  0
M  END