
  SciTegic10041313192D

 21 23  0  0  0  0            999 V2000
    0.0292   -1.7417    0.0000 C   0  0
   -1.6083   -1.7167    0.0000 C   0  0
   -0.3833   -1.0042    0.0000 O   0  0
   -0.3833   -2.4292    0.0000 O   0  0
   -1.0333   -1.4750    0.0000 O   0  0
    2.9292   -3.8542    0.0000 C   0  0
    0.8500   -1.7250    0.0000 C   0  0
   -2.4333   -1.7125    0.0000 C   0  0
   -1.2000   -2.4292    0.0000 C   0  0
   -1.0250   -2.3000    0.0000 C   0  0
   -1.2000   -1.0042    0.0000 C   0  0
    2.4917   -3.1625    0.0000 N   0  0
    3.4638   -4.6994    0.0000 S   0  0
    1.2542   -2.4417    0.0000 C   0  0
    2.0792   -2.4417    0.0000 C   0  0
    1.2625   -1.0167    0.0000 C   0  0
    2.0875   -1.0167    0.0000 C   0  0
   -2.8458   -1.0000    0.0000 C   0  0
   -2.8500   -2.4292    0.0000 C   0  0
   -2.2208   -0.9167    0.0000 C   0  0
    2.5000   -1.7292    0.0000 C   0  0
  2 10  1  0
  3  1  1  0
  4  1  1  0
  5  1  1  0
  6 12  2  0
  7  1  1  0
  8  2  1  0
  9  4  1  0
 10  5  1  0
 11  3  1  0
 12 15  1  0
 13  6  2  0
 14  7  2  0
 15 14  1  0
 16  7  1  0
 17 16  2  0
 18  8  1  0
 19  8  1  0
 20  8  1  0
 21 17  1  0
  2  9  1  0
  2 11  1  0
 15 21  2  0
M  END