
  SciTegic07101214422D

 21 23  0  0  0  0            999 V2000
   -0.7348  -12.9791    0.0000 C   0  0
   -0.7359  -13.8065    0.0000 C   0  0
   -0.0211  -14.2194    0.0000 N   0  0
    0.6953  -13.8060    0.0000 C   0  0
    0.6925  -12.9755    0.0000 N   0  0
   -0.0229  -12.5664    0.0000 N   0  0
    1.4105  -14.2174    0.0000 N   0  0
   -1.4493  -12.5668    0.0000 C   0  0
   -1.4507  -14.2184    0.0000 C   0  0
   -1.4461  -11.7409    0.0000 C   0  0
   -2.1598  -11.3286    0.0000 C   0  0
   -2.8752  -11.7413    0.0000 N   0  0
   -2.8723  -12.5706    0.0000 C   0  0
   -2.1580  -12.9791    0.0000 C   0  0
   -2.1632  -13.8039    0.0000 C   0  0
   -2.8775  -14.2152    0.0000 C   0  0
   -2.8786  -15.0410    0.0000 C   0  0
   -2.1595  -15.4540    0.0000 C   0  0
   -1.4481  -15.0403    0.0000 C   0  0
   -2.1596  -10.5036    0.0000 C   0  0
   -3.5852  -12.9858    0.0000 C   0  0
  2  3  1  0
 10 11  1  0
  5  6  2  0
 11 12  2  0
  6  1  1  0
 12 13  1  0
  1  2  2  0
 13 14  2  0
 14  8  1  0
  4  7  1  0
  9 15  2  0
  3  4  2  0
 15 16  1  0
  1  8  1  0
 16 17  2  0
 17 18  1  0
  2  9  1  0
 18 19  2  0
 19  9  1  0
  4  5  1  0
 11 20  1  0
  8 10  2  0
 13 21  1  0
M  END