
  SciTegic10191216022D

 22 24  0  0  0  0            999 V2000
    8.9995   -9.1942    0.0000 C   0  0
    9.0054   -8.3691    0.0000 C   0  0
    8.2959   -7.9558    0.0000 C   0  0
    7.5787   -8.3636    0.0000 C   0  0
    7.5756   -9.1893    0.0000 C   0  0
    8.2896   -9.6071    0.0000 C   0  0
    9.7219   -7.9607    0.0000 C   0  0
    8.5761   -9.1829    0.0000 C   0  0
    9.7133   -9.6082    0.0000 O   0  0
   10.4286   -9.1971    0.0000 C   0  0
   11.1424   -9.6110    0.0000 C   0  0
   10.4303   -8.3719    0.0000 O   0  0
   11.1373  -10.4345    0.0000 C   0  0
   11.8502  -10.8484    0.0000 C   0  0
   12.5666  -10.4372    0.0000 C   0  0
   12.5655   -9.6078    0.0000 C   0  0
   11.8520   -9.1977    0.0000 C   0  0
   13.2832   -9.1920    0.0000 O   0  0
   14.0021   -9.6056    0.0000 C   0  0
   13.2816  -10.8507    0.0000 O   0  0
    8.0417   -9.7083    0.0000 I   0  0
    9.1042   -9.7083    0.0000 C   0  0
  1  6  1  0
 10 11  1  0
  2  3  1  0
 10 12  2  0
  3  4  1  0
 11 13  2  0
  5  4  1  0
 13 14  1  0
  5  6  1  0
 14 15  2  0
  2  7  1  0
 15 16  1  0
  5  8  1  0
 16 17  2  0
 17 11  1  0
  2  8  1  0
 16 18  1  0
 18 19  1  0
  1  9  1  0
 15 20  1  0
  1  2  1  0
  8 21  1  0
  9 10  1  0
  8 22  1  0
M  END