
  Mrv0541 04051115152D          

 54 59  0  0  0  0            999 V2000
   -1.8802   -2.4149    0.0000 N   0  0  0  0  0  0  0  0  0  0  0  0
   -1.3402   -1.7913    0.0000 C   0  0  0  0  0  0  0  0  0  0  0  0
   -1.6102   -1.0117    0.0000 C   0  0  0  0  0  0  0  0  0  0  0  0
   -1.0701   -0.3881    0.0000 C   0  0  0  0  0  0  0  0  0  0  0  0
   -1.3402    0.3915    0.0000 C   0  0  0  0  0  0  0  0  0  0  0  0
   -0.8001    1.0151    0.0000 C   0  0  2  0  0  0  0  0  0  0  0  0
    0.0101    0.8592    0.0000 N   0  0  0  0  0  0  0  0  0  0  0  0
    0.2801    0.0796    0.0000 C   0  0  0  0  0  0  0  0  0  0  0  0
   -0.2600   -0.5440    0.0000 O   0  0  0  0  0  0  0  0  0  0  0  0
    1.0902   -0.0763    0.0000 C   0  0  1  0  0  0  0  0  0  0  0  0
    1.6303    0.5474    0.0000 C   0  0  0  0  0  0  0  0  0  0  0  0
    1.3603    1.3269    0.0000 C   0  0  0  0  0  0  0  0  0  0  0  0
    0.5502    1.4828    0.0000 C   0  0  0  0  0  0  0  0  0  0  0  0
    0.2801    2.2624    0.0000 C   0  0  0  0  0  0  0  0  0  0  0  0
   -0.5300    2.4183    0.0000 Br  0  0  0  0  0  0  0  0  0  0  0  0
    0.8202    2.8860    0.0000 C   0  0  0  0  0  0  0  0  0  0  0  0
    0.5502    3.6656    0.0000 O   0  0  0  0  0  0  0  0  0  0  0  0
    1.6303    2.7301    0.0000 C   0  0  0  0  0  0  0  0  0  0  0  0
    2.1704    3.3538    0.0000 Br  0  0  0  0  0  0  0  0  0  0  0  0
    1.9004    1.9506    0.0000 C   0  0  0  0  0  0  0  0  0  0  0  0
    1.3603   -0.8558    0.0000 N   0  0  0  0  0  0  0  0  0  0  0  0
    2.1704   -1.0117    0.0000 C   0  0  0  0  0  0  0  0  0  0  0  0
    2.7105   -0.3881    0.0000 O   0  0  0  0  0  0  0  0  0  0  0  0
    2.4405   -1.7913    0.0000 N   0  0  0  0  0  0  0  0  0  0  0  0
    1.9004   -2.4149    0.0000 C   0  0  0  0  0  0  0  0  0  0  0  0
    2.1704   -3.1945    0.0000 C   0  0  0  0  0  0  0  0  0  0  0  0
    2.9806   -3.3504    0.0000 C   0  0  0  0  0  0  0  0  0  0  0  0
    3.5207   -2.7268    0.0000 C   0  0  0  0  0  0  0  0  0  0  0  0
    3.2506   -1.9472    0.0000 C   0  0  0  0  0  0  0  0  0  0  0  0
    3.2506   -4.1299    0.0000 N   0  0  0  0  0  0  0  0  0  0  0  0
    2.7105   -4.7536    0.0000 C   0  0  0  0  0  0  0  0  0  0  0  0
    2.9806   -5.5331    0.0000 C   0  0  0  0  0  0  0  0  0  0  0  0
    2.4405   -6.1568    0.0000 C   0  0  0  0  0  0  0  0  0  0  0  0
    2.7105   -6.9363    0.0000 C   0  0  0  0  0  0  0  0  0  0  0  0
    3.5207   -7.0922    0.0000 C   0  0  0  0  0  0  0  0  0  0  0  0
    4.0607   -6.4686    0.0000 C   0  0  0  0  0  0  0  0  0  0  0  0
    3.7907   -5.6890    0.0000 C   0  0  0  0  0  0  0  0  0  0  0  0
    4.3308   -5.0654    0.0000 N   0  0  0  0  0  0  0  0  0  0  0  0
    4.0607   -4.2859    0.0000 C   0  0  0  0  0  0  0  0  0  0  0  0
    4.6008   -3.6622    0.0000 O   0  0  0  0  0  0  0  0  0  0  0  0
   -1.0701    1.7946    0.0000 C   0  0  0  0  0  0  0  0  0  0  0  0
   -0.9997    2.6166    0.0000 O   0  0  0  0  0  0  0  0  0  0  0  0
   -1.8802    1.9506    0.0000 N   0  0  0  0  0  0  0  0  0  0  0  0
   -2.1503    2.7301    0.0000 C   0  0  0  0  0  0  0  0  0  0  0  0
   -2.9604    2.8860    0.0000 C   0  0  0  0  0  0  0  0  0  0  0  0
   -3.5005    2.2624    0.0000 N   0  0  0  0  0  0  0  0  0  0  0  0
   -3.2305    1.4828    0.0000 C   0  0  0  0  0  0  0  0  0  0  0  0
   -2.4203    1.3269    0.0000 C   0  0  0  0  0  0  0  0  0  0  0  0
   -4.3106    2.4183    0.0000 C   0  0  0  0  0  0  0  0  0  0  0  0
   -4.8507    1.7946    0.0000 C   0  0  0  0  0  0  0  0  0  0  0  0
   -5.6609    1.9506    0.0000 C   0  0  0  0  0  0  0  0  0  0  0  0
   -5.9309    2.7301    0.0000 N   0  0  0  0  0  0  0  0  0  0  0  0
   -5.3908    3.3538    0.0000 C   0  0  0  0  0  0  0  0  0  0  0  0
   -4.5807    3.1978    0.0000 C   0  0  0  0  0  0  0  0  0  0  0  0
  2  1  1  0  0  0  0
  2  3  1  0  0  0  0
  3  4  1  0  0  0  0
  4  5  1  0  0  0  0
  5  6  1  0  0  0  0
  6  7  1  1  0  0  0
 41  6  1  0  0  0  0
  8  7  1  0  0  0  0
 10  8  1  0  0  0  0
  8  9  2  0  0  0  0
 10 11  1  0  0  0  0
 10 21  1  1  0  0  0
 11 12  1  0  0  0  0
 12 13  2  0  0  0  0
 12 20  1  0  0  0  0
 13 14  1  0  0  0  0
 15 14  1  0  0  0  0
 14 16  2  0  0  0  0
 16 17  1  0  0  0  0
 16 18  1  0  0  0  0
 18 20  2  0  0  0  0
 19 18  1  0  0  0  0
 22 21  1  0  0  0  0
 22 23  2  0  0  0  0
 22 24  1  0  0  0  0
 25 24  1  0  0  0  0
 29 24  1  0  0  0  0
 25 26  1  0  0  0  0
 26 27  1  0  0  0  0
 27 28  1  0  0  0  0
 27 30  1  0  0  0  0
 28 29  1  0  0  0  0
 39 30  1  0  0  0  0
 31 30  1  0  0  0  0
 31 32  1  0  0  0  0
 32 37  2  0  0  0  0
 32 33  1  0  0  0  0
 33 34  2  0  0  0  0
 34 35  1  0  0  0  0
 35 36  2  0  0  0  0
 36 37  1  0  0  0  0
 37 38  1  0  0  0  0
 39 38  1  0  0  0  0
 39 40  2  0  0  0  0
 41 42  2  0  0  0  0
 41 43  1  0  0  0  0
 44 43  1  0  0  0  0
 48 43  1  0  0  0  0
 44 45  1  0  0  0  0
 45 46  1  0  0  0  0
 47 46  1  0  0  0  0
 49 46  1  0  0  0  0
 47 48  1  0  0  0  0
 49 50  2  0  0  0  0
 49 54  1  0  0  0  0
 50 51  1  0  0  0  0
 51 52  2  0  0  0  0
 53 52  1  0  0  0  0
 53 54  2  0  0  0  0
M  END