
  CDK    9/16/09,9:54

 16 16  0  0  0  0  0  0  0  0999 V2000
    5.4537  -10.9955    0.0000 C   0  0  0  0  0  0  0  0  0  0  0  0
    6.1682  -11.4080    0.0000 N   0  0  0  0  0  0  0  0  0  0  0  0
    5.4537  -10.1705    0.0000 O   0  0  0  0  0  0  0  0  0  0  0  0
    6.8827  -10.9955    0.0000 C   0  0  0  0  0  0  0  0  0  0  0  0
    7.5971  -11.4080    0.0000 C   0  0  0  0  0  0  0  0  0  0  0  0
    8.3116  -10.9955    0.0000 O   0  0  0  0  0  0  0  0  0  0  0  0
    7.5971  -12.2330    0.0000 O   0  0  0  0  0  0  0  0  0  0  0  0
    4.7392  -11.4080    0.0000 C   0  0  0  0  0  0  0  0  0  0  0  0
    4.0252  -10.9926    0.0000 C   0  0  0  0  0  0  0  0  0  0  0  0
    3.3113  -11.4044    0.0000 C   0  0  0  0  0  0  0  0  0  0  0  0
    3.3107  -12.2303    0.0000 C   0  0  0  0  0  0  0  0  0  0  0  0
    4.0302  -12.6427    0.0000 C   0  0  0  0  0  0  0  0  0  0  0  0
    4.7413  -12.2285    0.0000 C   0  0  0  0  0  0  0  0  0  0  0  0
    2.5940  -12.6464    0.0000 N   0  0  0  0  0  0  0  0  0  0  0  0
    2.5951  -13.4714    0.0000 O   0  0  0  0  0  0  0  0  0  0  0  0
    1.8790  -12.2349    0.0000 O   0  0  0  0  0  0  0  0  0  0  0  0
  8  9  2  0  0  0  0 
  4  5  1  0  0  0  0 
  9 10  1  0  0  0  0 
  1  3  2  0  0  0  0 
 10 11  2  0  0  0  0 
  5  6  1  0  0  0  0 
 11 12  1  0  0  0  0 
  1  2  1  0  0  0  0 
 12 13  2  0  0  0  0 
 13  8  1  0  0  0  0 
  5  7  2  0  0  0  0 
  2  4  1  0  0  0  0 
  1  8  1  0  0  0  0 
 14 15  2  0  0  0  0 
 14 16  1  0  0  0  0 
 11 14  1  0  0  0  0 
M  CHG  1  14   1
M  CHG  1  16  -1
M  END