
  SciTegic10011413212D

 24 26  0  0  0  0            999 V2000
    9.9342  -28.7338    0.0000 C   0  0
   10.6419  -28.3252    0.0000 C   0  0
   11.3497  -28.7338    0.0000 N   0  0
   12.0574  -28.3252    0.0000 C   0  0
   12.7651  -28.7338    0.0000 C   0  0
   12.0574  -27.5080    0.0000 O   0  0
   10.6419  -27.5080    0.0000 C   0  0
    9.2265  -28.3252    0.0000 C   0  0
    8.5188  -28.7338    0.0000 C   0  0
    9.2265  -27.5080    0.0000 O   0  0
    7.8117  -28.3221    0.0000 C   0  0
    7.1045  -28.7300    0.0000 C   0  0
    7.1040  -29.5480    0.0000 C   0  0
    7.8167  -29.9565    0.0000 C   0  0
    8.5210  -29.5462    0.0000 C   0  0
   11.3529  -27.1029    0.0000 C   0  0
   11.3533  -26.2865    0.0000 C   0  0
   10.6450  -25.8771    0.0000 C   0  0
    9.9350  -26.2901    0.0000 C   0  0
    9.9381  -27.1051    0.0000 C   0  0
   10.6439  -25.0599    0.0000 Cl  0  0
    6.3968  -29.9576    0.0000 Cl  0  0
   13.1756  -29.4357    0.0000 C   0  0
   13.5842  -28.7280    0.0000 C   0  0
  1  2  1  0
  2  3  1  0
  3  4  1  0
  4  5  1  0
  4  6  2  0
  2  7  1  0
  1  8  1  0
  8  9  1  0
  8 10  2  0
  9 11  2  0
 11 12  1  0
 12 13  2  0
 13 14  1  0
 14 15  2  0
 15  9  1  0
  7 16  2  0
 16 17  1  0
 17 18  2  0
 18 19  1  0
 19 20  2  0
 20  7  1  0
 18 21  1  0
 13 22  1  0
 23  5  1  0
 24 23  1  0
  5 24  1  0
M  END