
  SciTegic01161211262D

324362  0  0  0  0            999 V2000
   -1.0563    0.6280    0.0000 C   0  0
   -1.0050   -0.1385    0.0000 N   0  0
   -1.9371    0.8584    0.0000 C   0  0
   -0.4664    1.2150    0.0000 N   0  0
   -0.3392   -0.5754    0.0000 C   0  0  2  0  0  0
   -1.8296   -0.4366    0.0000 C   0  0
   -2.3709    0.2305    0.0000 N   0  0
   -2.1594    1.6406    0.0000 C   0  0
   -0.6866    2.0452    0.0000 C   0  0
   -0.2985   -1.4133    0.0000 O   0  0
    0.3988   -0.3089    0.0000 C   0  0  1  0  0  0
   -1.5382    2.2732    0.0000 N   0  0
   -2.9498    1.8512    0.0000 O   0  0
   -0.1092    2.6172    0.0000 N   0  0
    0.4779   -1.6269    0.0000 C   0  0  1  0  0  0
    0.9157   -0.9449    0.0000 C   0  0  1  0  0  0
    0.5259    0.5058    0.0000 O   0  0
    0.7709   -2.3800    0.0000 C   0  0
    1.7349   -0.8581    0.0000 O   0  0
    0.1544   -2.9095    0.0000 O   0  0
   -2.7591   -4.7845    0.0000 C   0  0
   -2.3063   -5.4052    0.0000 N   0  0
   -3.6268   -5.0601    0.0000 C   0  0
   -2.5739   -3.9732    0.0000 N   0  0
   -1.5100   -5.4190    0.0000 C   0  0  2  0  0  0
   -2.8444   -6.0976    0.0000 C   0  0
   -3.6582   -5.8226    0.0000 N   0  0
   -4.2325   -4.5175    0.0000 C   0  0
   -3.2034   -3.3889    0.0000 C   0  0
   -1.0282   -6.1056    0.0000 O   0  0
   -1.0286   -4.7995    0.0000 C   0  0  1  0  0  0
   -4.0451   -3.6509    0.0000 N   0  0
   -5.0132   -4.7615    0.0000 O   0  0
   -3.0207   -2.5969    0.0000 N   0  0
   -0.2578   -5.8716    0.0000 C   0  0  1  0  0  0
   -0.2518   -5.0612    0.0000 C   0  0  1  0  0  0
   -1.3561   -4.0429    0.0000 O   0  0
    0.3921   -6.3519    0.0000 C   0  0
    0.3945   -4.5503    0.0000 O   0  0
    0.1537   -7.1287    0.0000 O   0  0
    0.2743   -3.7299    0.0000 P   0  0
    1.0914   -3.5893    0.0000 O   0  0
   -0.5447   -3.8590    0.0000 O   0  0
    1.1560   -8.4158    0.0000 O   0  0
    0.9080   -9.2042    0.0000 C   0  0  1  0  0  0
    0.1271   -9.4672    0.0000 C   0  0
    1.3910   -9.8659    0.0000 C   0  0  2  0  0  0
    0.1464  -10.3087    0.0000 C   0  0  1  0  0  0
    0.9119  -10.5504    0.0000 O   0  0
    2.2203   -9.8603    0.0000 C   0  0
    2.4893   -9.0800    0.0000 O   0  0
   -0.5204  -10.8079    0.0000 N   0  0
   -1.2822  -10.4837    0.0000 C   0  0
   -1.9490  -10.9829    0.0000 N   0  0
   -1.8436  -11.8079    0.0000 C   0  0
   -1.0831  -12.1278    0.0000 C   0  0
   -0.4148  -11.6329    0.0000 C   0  0
   -1.3832   -9.6573    0.0000 O   0  0
   -2.5102  -12.3072    0.0000 O   0  0
   -0.9819  -12.9541    0.0000 C   0  0
    4.1848   -8.9543    0.0000 O   0  0
    4.5723   -8.2243    0.0000 C   0  0  1  0  0  0
    4.2117   -7.4835    0.0000 C   0  0
    5.3827   -8.1039    0.0000 C   0  0  2  0  0  0
    4.8245   -6.9066    0.0000 C   0  0  1  0  0  0
    5.5341   -7.2823    0.0000 O   0  0
    5.9608   -8.6987    0.0000 C   0  0
    4.7122   -6.0814    0.0000 N   0  0
    3.9466   -5.7662    0.0000 C   0  0
    3.8341   -4.9409    0.0000 N   0  0
    4.4958   -4.4369    0.0000 C   0  0
    5.2574   -4.7541    0.0000 C   0  0
    5.3739   -5.5775    0.0000 C   0  0
    3.2870   -6.2743    0.0000 O   0  0
    4.3835   -3.6116    0.0000 O   0  0
    5.9170   -4.2462    0.0000 C   0  0
    6.7646   -8.4955    0.0000 O   0  0
    9.5444   -4.7524    0.0000 C   0  0
    9.7363   -5.4963    0.0000 N   0  0
   10.3084   -4.2571    0.0000 C   0  0
    8.8002   -4.3803    0.0000 N   0  0
    9.2413   -6.1202    0.0000 C   0  0  2  0  0  0
   10.6129   -5.5204    0.0000 C   0  0
   10.9174   -4.7172    0.0000 N   0  0
   10.2739   -3.4447    0.0000 C   0  0
    8.7485   -3.5229    0.0000 C   0  0
    9.4657   -6.9284    0.0000 O   0  0
    8.4570   -6.0987    0.0000 C   0  0  1  0  0  0
    9.4856   -3.0391    0.0000 N   0  0
   10.9582   -2.9966    0.0000 O   0  0
    8.0208   -3.1610    0.0000 N   0  0
    8.7956   -7.3749    0.0000 C   0  0  1  0  0  0
    8.1658   -6.8648    0.0000 C   0  0  1  0  0  0
    8.0806   -5.3651    0.0000 O   0  0
    8.7539   -8.1820    0.0000 C   0  0
    7.3609   -7.0395    0.0000 O   0  0
    9.5054   -8.4912    0.0000 O   0  0
   12.8602   -9.3568    0.0000 C   0  0
   12.6253  -10.0882    0.0000 N   0  0
   13.7706   -9.3460    0.0000 C   0  0
   12.4297   -8.6447    0.0000 N   0  0
   11.8735  -10.3513    0.0000 C   0  0  2  0  0  0
   13.3534  -10.5767    0.0000 C   0  0
   14.0398  -10.0601    0.0000 N   0  0
   14.1753   -8.6406    0.0000 C   0  0
   12.8440   -7.8922    0.0000 C   0  0
   11.6316  -11.1544    0.0000 O   0  0
   11.2219   -9.9143    0.0000 C   0  0  1  0  0  0
   13.7254   -7.8767    0.0000 N   0  0
   14.9932   -8.6273    0.0000 O   0  0
   12.4219   -7.1976    0.0000 N   0  0
   10.8266  -11.1742    0.0000 C   0  0  1  0  0  0
   10.5666  -10.4065    0.0000 C   0  0  1  0  0  0
   11.2953   -9.0930    0.0000 O   0  0
   10.3604  -11.8342    0.0000 C   0  0
    9.7927  -10.1244    0.0000 O   0  0
   10.8307  -12.4969    0.0000 O   0  0
    9.6491   -9.3077    0.0000 P   0  0
    8.8291   -9.4307    0.0000 O   0  0
   10.4673   -9.1733    0.0000 O   0  0
    7.1080   -7.8292    0.0000 P   0  0
    7.8855   -8.1174    0.0000 O   0  0
    6.3321   -7.5370    0.0000 O   0  0
    3.3563   -8.9839    0.0000 P   0  0
    3.2876   -8.1575    0.0000 O   0  0
    3.4240   -9.8103    0.0000 O   0  0
    0.5955   -7.8049    0.0000 P   0  0
    1.2587   -7.3078    0.0000 O   0  0
   -0.0662   -8.3045    0.0000 O   0  0
    9.9372  -14.0495    0.0000 O   0  0
    9.1119  -14.0945    0.0000 C   0  0  1  0  0  0
    8.5911  -13.4560    0.0000 C   0  0
    8.6623  -14.7793    0.0000 C   0  0  2  0  0  0
    7.8103  -13.7698    0.0000 C   0  0  1  0  0  0
    7.8531  -14.5716    0.0000 O   0  0
    8.9591  -15.5537    0.0000 C   0  0
    7.1085  -13.3212    0.0000 N   0  0
    7.1441  -12.4941    0.0000 C   0  0
    6.4423  -12.0453    0.0000 N   0  0
    5.7070  -12.4340    0.0000 C   0  0
    5.6750  -13.2584    0.0000 C   0  0
    6.3732  -13.7100    0.0000 C   0  0
    7.8822  -12.1089    0.0000 O   0  0
    5.0053  -11.9855    0.0000 O   0  0
    4.9369  -13.6437    0.0000 C   0  0
    8.4371  -16.1978    0.0000 O   0  0
    3.8726  -17.1482    0.0000 C   0  0
    4.4671  -17.6348    0.0000 N   0  0
    3.1022  -17.6335    0.0000 C   0  0
    3.8475  -16.3165    0.0000 N   0  0
    5.2412  -17.4477    0.0000 C   0  0  2  0  0  0
    4.1207  -18.4404    0.0000 C   0  0
    3.2639  -18.3793    0.0000 N   0  0
    2.3794  -17.2608    0.0000 C   0  0
    3.0911  -15.9095    0.0000 C   0  0
    5.8804  -17.9908    0.0000 O   0  0
    5.5512  -16.7270    0.0000 C   0  0  1  0  0  0
    2.3425  -16.3751    0.0000 N   0  0
    1.6854  -17.6937    0.0000 O   0  0
    3.0685  -15.0970    0.0000 N   0  0
    6.5671  -17.5704    0.0000 C   0  0  1  0  0  0
    6.3688  -16.7845    0.0000 C   0  0  1  0  0  0
    5.0436  -16.0772    0.0000 O   0  0
    7.3170  -17.8714    0.0000 C   0  0
    6.8654  -16.1274    0.0000 O   0  0
    7.2819  -18.6833    0.0000 O   0  0
    7.6882  -16.2296    0.0000 P   0  0
    7.6232  -17.0562    0.0000 O   0  0
    7.7490  -15.4027    0.0000 O   0  0
   10.3121  -13.3099    0.0000 P   0  0
    9.5911  -12.9006    0.0000 O   0  0
   11.0336  -13.7186    0.0000 O   0  0
    8.7210  -19.5822    0.0000 O   0  0
    8.7342  -20.4086    0.0000 C   0  0  1  0  0  0
    8.0761  -20.9043    0.0000 C   0  0
    9.4010  -20.8843    0.0000 C   0  0  2  0  0  0
    8.3594  -21.6968    0.0000 C   0  0  1  0  0  0
    9.1622  -21.6849    0.0000 O   0  0
   10.1863  -20.6175    0.0000 C   0  0
    7.8840  -22.3806    0.0000 N   0  0
    7.0589  -22.3131    0.0000 C   0  0
    6.5834  -22.9971    0.0000 N   0  0
    6.9435  -23.7467    0.0000 C   0  0
    7.7660  -23.8106    0.0000 C   0  0
    8.2442  -23.1303    0.0000 C   0  0
    6.7026  -21.5607    0.0000 O   0  0
    6.4682  -24.4308    0.0000 O   0  0
    8.1225  -24.5630    0.0000 C   0  0
   10.8099  -21.1640    0.0000 O   0  0
   11.5833  -25.7619    0.0000 C   0  0
   12.0925  -25.1867    0.0000 N   0  0
   12.0384  -26.5504    0.0000 C   0  0
   10.7512  -25.7548    0.0000 N   0  0
   11.9353  -24.4059    0.0000 C   0  0  2  0  0  0
   12.8841  -25.5639    0.0000 C   0  0
   12.7900  -26.4177    0.0000 N   0  0
   11.6382  -27.2583    0.0000 C   0  0
   10.3153  -26.4949    0.0000 C   0  0
   12.5028  -23.7882    0.0000 O   0  0
   11.2271  -24.0683    0.0000 C   0  0  1  0  0  0
   10.7516  -27.2611    0.0000 N   0  0
   12.0438  -27.9686    0.0000 O   0  0
    9.5026  -26.4862    0.0000 N   0  0
   12.1091  -23.0857    0.0000 C   0  0  1  0  0  0
   11.3162  -23.2535    0.0000 C   0  0  1  0  0  0
   10.5582  -24.5504    0.0000 O   0  0
   12.4389  -22.3480    0.0000 C   0  0
   10.6788  -22.7319    0.0000 O   0  0
   13.2489  -22.4145    0.0000 O   0  0
   16.6304  -23.1692    0.0000 C   0  0
   16.7537  -22.4110    0.0000 N   0  0
   17.4362  -23.5928    0.0000 C   0  0
   15.9231  -23.6076    0.0000 N   0  0
   16.2039  -21.8348    0.0000 C   0  0  2  0  0  0
   17.6243  -22.3071    0.0000 C   0  0
   18.0008  -23.0793    0.0000 N   0  0
   17.4759  -24.4051    0.0000 C   0  0
   15.9497  -24.4662    0.0000 C   0  0
   16.3537  -21.0094    0.0000 O   0  0
   15.4248  -21.9276    0.0000 C   0  0  1  0  0  0
   16.7278  -24.8809    0.0000 N   0  0
   18.1981  -24.7890    0.0000 O   0  0
   15.2580  -24.8928    0.0000 N   0  0
   15.6458  -20.6258    0.0000 C   0  0  1  0  0  0
   15.0651  -21.1912    0.0000 C   0  0  1  0  0  0
   15.1168  -22.6924    0.0000 O   0  0
   15.5306  -19.8260    0.0000 C   0  0
   14.2474  -21.0905    0.0000 O   0  0
   16.2510  -19.4496    0.0000 O   0  0
   13.7483  -21.7526    0.0000 P   0  0
   13.0739  -21.2701    0.0000 O   0  0
   14.4158  -22.2444    0.0000 O   0  0
   10.8127  -21.9137    0.0000 P   0  0
   11.6362  -22.0105    0.0000 O   0  0
    9.9887  -21.8210    0.0000 O   0  0
    7.9966  -19.1790    0.0000 P   0  0
    7.5596  -19.8837    0.0000 O   0  0
    8.4327  -18.4739    0.0000 O   0  0
   16.3374  -17.7623    0.0000 O   0  0
   15.6656  -17.2810    0.0000 C   0  0  1  0  0  0
   14.8833  -17.5395    0.0000 C   0  0
   15.6544  -16.4618    0.0000 C   0  0  2  0  0  0
   14.3933  -16.8552    0.0000 C   0  0  1  0  0  0
   14.8603  -16.2021    0.0000 O   0  0
   16.3209  -15.9683    0.0000 C   0  0
   17.0046  -16.4306    0.0000 O   0  0
   13.5604  -16.8564    0.0000 N   0  0
   13.1460  -17.5732    0.0000 C   0  0
   12.3130  -17.5746    0.0000 N   0  0
   11.9018  -16.8516    0.0000 C   0  0
   12.3178  -16.1391    0.0000 C   0  0
   13.1494  -16.1334    0.0000 C   0  0
   13.5615  -18.2946    0.0000 O   0  0
   11.0689  -16.8527    0.0000 O   0  0
   11.9024  -15.4176    0.0000 C   0  0
   18.4358  -15.5127    0.0000 O   0  0
   19.1841  -15.8638    0.0000 C   0  0  1  0  0  0
   19.3407  -16.6727    0.0000 C   0  0
   19.9043  -15.4733    0.0000 C   0  0  2  0  0  0
   20.1770  -16.7659    0.0000 C   0  0  1  0  0  0
   20.5188  -16.0395    0.0000 O   0  0
   20.0093  -14.6507    0.0000 C   0  0
   20.5828  -17.4932    0.0000 N   0  0
   20.1600  -18.2051    0.0000 C   0  0
   20.5657  -18.9325    0.0000 N   0  0
   21.3974  -18.9380    0.0000 C   0  0
   21.8158  -18.2270    0.0000 C   0  0
   21.4145  -17.4988    0.0000 C   0  0
   19.3274  -18.1949    0.0000 O   0  0
   21.8033  -19.6654    0.0000 O   0  0
   22.6483  -18.2370    0.0000 C   0  0
   20.7741  -14.3303    0.0000 O   0  0
   25.2447  -15.6537    0.0000 C   0  0
   24.9514  -14.9437    0.0000 N   0  0
   26.1530  -15.5910    0.0000 C   0  0
   24.8731  -16.3982    0.0000 N   0  0
   24.1810  -14.7421    0.0000 C   0  0  2  0  0  0
   25.6378  -14.3980    0.0000 C   0  0
   26.3636  -14.8574    0.0000 N   0  0
   26.6133  -16.2612    0.0000 C   0  0
   25.3467  -17.1148    0.0000 C   0  0
   23.8750  -13.9612    0.0000 O   0  0
   23.5667  -15.2303    0.0000 C   0  0  1  0  0  0
   26.2266  -17.0591    0.0000 N   0  0
   27.4295  -16.2086    0.0000 O   0  0
   24.9821  -17.8412    0.0000 N   0  0
   23.0710  -14.0065    0.0000 C   0  0  1  0  0  0
   22.8738  -14.7927    0.0000 C   0  0  1  0  0  0
   23.7063  -16.0430    0.0000 O   0  0
   22.5530  -13.3863    0.0000 C   0  0
   22.1251  -15.1364    0.0000 O   0  0
   22.9682  -12.6877    0.0000 O   0  0
   25.1307   -9.9809    0.0000 C   0  0
   24.5036   -9.5371    0.0000 N   0  0
   25.8651   -9.4427    0.0000 C   0  0
   25.2141  -10.8088    0.0000 N   0  0
   23.7445   -9.7782    0.0000 C   0  0  2  0  0  0
   24.7924   -8.7092    0.0000 C   0  0
   25.6514   -8.7101    0.0000 N   0  0
   26.6123   -9.7636    0.0000 C   0  0
   25.9972  -11.1617    0.0000 C   0  0
   23.0687   -9.2813    0.0000 O   0  0
   23.4859  -10.5189    0.0000 C   0  0  1  0  0  0
   26.7114  -10.6446    0.0000 N   0  0
   27.2742   -9.2832    0.0000 O   0  0
   26.0769  -11.9705    0.0000 N   0  0
   22.4132   -9.7489    0.0000 C   0  0  1  0  0  0
   22.6663  -10.5189    0.0000 C   0  0  1  0  0  0
   24.0379  -11.1315    0.0000 O   0  0
   21.6440   -9.5013    0.0000 C   0  0
   22.2170  -11.2093    0.0000 O   0  0
   21.6220   -8.6890    0.0000 O   0  0
   22.5927  -11.9485    0.0000 P   0  0
   21.8631  -12.3426    0.0000 O   0  0
   23.3276  -11.5646    0.0000 O   0  0
   21.4488  -14.6568    0.0000 P   0  0
   21.8973  -13.9595    0.0000 O   0  0
   21.0038  -15.3565    0.0000 O   0  0
   17.7556  -15.9867    0.0000 P   0  0
   18.1969  -16.6886    0.0000 O   0  0
   17.3135  -15.2853    0.0000 O   0  0
   16.2561  -18.5875    0.0000 P   0  0
   17.0850  -18.5866    0.0000 O   0  0
   15.4270  -18.5855    0.0000 O   0  0
 67 77  1  0
 31 36  1  0
 31 37  1  6
 35 38  1  1
 36 39  1  6
147148  1  0
147149  2  0
147150  1  0
151148  1  1
148152  1  0
149153  1  0
149154  1  0
150155  2  0
151156  1  0
157151  1  0
154158  1  0
154159  2  0
155160  1  0
156161  1  0
157162  1  0
157163  1  6
161164  1  1
162165  1  6
164166  1  0
152153  2  0
155158  1  0
162161  1  0
 38 40  1  0
165167  1  0
167146  1  0
 26 27  2  0
167168  1  0
 29 32  1  0
167169  2  0
 36 35  1  0
130170  1  0
170117  1  0
  6  7  2  0
170171  2  0
 39 41  1  0
170172  1  0
  9 12  1  0
 41 42  2  0
 16 15  1  0
 41 43  1  0
 41 20  1  0
  1  2  1  0
  1  3  2  0
  1  4  1  0
  5  2  1  1
 78 79  1  0
 78 80  2  0
 78 81  1  0
 82 79  1  6
 79 83  1  0
 80 84  1  0
174175  1  0
174176  1  0
175177  1  0
176178  1  0
177178  1  0
174173  1  6
176179  1  1
180181  1  0
181182  1  0
182183  1  0
183184  1  0
184185  2  0
185180  1  0
177180  1  1
181186  2  0
183187  2  0
184188  1  0
 80 85  1  0
179189  1  0
 81 86  2  0
 82 87  1  0
 88 82  1  0
 85 89  1  0
 85 90  2  0
 86 91  1  0
 87 92  1  0
 88 93  1  0
 88 94  1  1
 92 95  1  6
 93 96  1  1
 95 97  1  0
 83 84  2  0
 86 89  1  0
 93 92  1  0
  2  6  1  0
  3  7  1  0
  3  8  1  0
  4  9  2  0
  5 10  1  0
190191  1  0
190192  2  0
190193  1  0
194191  1  1
191195  1  0
192196  1  0
192197  1  0
193198  2  0
194199  1  0
200194  1  0
197201  1  0
197202  2  0
198203  1  0
199204  1  0
200205  1  0
200206  1  6
204207  1  1
205208  1  6
207209  1  0
195196  2  0
198201  1  0
205204  1  0
 11  5  1  0
  8 12  1  0
  8 13  2  0
  9 14  1  0
 10 15  1  0
 11 16  1  0
 11 17  1  6
 45 46  1  0
 45 47  1  0
 46 48  1  0
 47 49  1  0
 48 49  1  0
 45 44  1  6
 50 51  1  0
 47 50  1  1
 98 99  1  0
 98100  2  0
 98101  1  0
102 99  1  6
 99103  1  0
210211  1  0
210212  2  0
210213  1  0
214211  1  1
211215  1  0
212216  1  0
212217  1  0
213218  2  0
214219  1  0
220214  1  0
217221  1  0
217222  2  0
218223  1  0
219224  1  0
220225  1  0
220226  1  6
224227  1  1
225228  1  6
227229  1  0
215216  2  0
218221  1  0
225224  1  0
100104  1  0
228230  1  0
100105  1  0
230231  2  0
101106  2  0
230232  1  0
230209  1  0
102107  1  0
208233  1  0
233189  1  0
108102  1  0
233234  1  0
105109  1  0
233235  2  0
105110  2  0
173236  1  0
236166  1  0
106111  1  0
236237  2  0
107112  1  0
236238  1  0
108113  1  0
108114  1  1
112115  1  6
113116  1  1
115117  1  0
103104  2  0
106109  1  0
113112  1  0
 52 53  1  0
116118  1  0
 53 54  1  0
118119  2  0
 54 55  1  0
118120  1  0
118 97  1  0
 55 56  1  0
 96121  1  0
240241  1  0
240242  1  0
241243  1  0
242244  1  0
243244  1  0
240239  1  1
245246  1  0
242245  1  6
247248  1  0
248249  1  0
249250  1  0
250251  1  0
251252  2  0
252247  1  0
243247  1  6
248253  2  0
250254  2  0
251255  1  0
121 77  1  0
 56 57  2  0
121122  1  0
 57 52  1  0
121123  2  0
 48 52  1  1
 61124  1  0
124 51  1  0
 53 58  2  0
124125  2  0
 55 59  2  0
124126  1  0
 56 60  1  0
 44127  1  0
127 40  1  0
 15 18  1  1
257258  1  0
257259  1  0
258260  1  0
259261  1  0
260261  1  0
257256  1  6
259262  1  1
263264  1  0
264265  1  0
265266  1  0
266267  1  0
267268  2  0
268263  1  0
260263  1  1
264269  2  0
266270  2  0
267271  1  0
127128  2  0
262272  1  0
 16 19  1  6
127129  1  0
 18 20  1  0
 21 22  1  0
 21 23  2  0
 21 24  1  0
 25 22  1  1
 22 26  1  0
 23 27  1  0
 23 28  1  0
 24 29  2  0
 25 30  1  0
 31 25  1  0
 28 32  1  0
 28 33  2  0
 29 34  1  0
 62 63  1  0
 62 64  1  0
131132  1  0
131133  1  0
273274  1  0
273275  2  0
273276  1  0
277274  1  1
274278  1  0
275279  1  0
275280  1  0
276281  2  0
277282  1  0
283277  1  0
280284  1  0
280285  2  0
281286  1  0
282287  1  0
283288  1  0
283289  1  6
287290  1  1
288291  1  6
290292  1  0
278279  2  0
281284  1  0
288287  1  0
132134  1  0
133135  1  0
134135  1  0
131130  1  6
133136  1  1
137138  1  0
138139  1  0
139140  1  0
140141  1  0
141142  2  0
142137  1  0
134137  1  1
138143  2  0
140144  2  0
141145  1  0
 63 65  1  0
136146  1  0
 64 66  1  0
 65 66  1  0
 62 61  1  1
293294  1  0
293295  2  0
293296  1  0
297294  1  1
294298  1  0
295299  1  0
295300  1  0
296301  2  0
297302  1  0
303297  1  0
300304  1  0
300305  2  0
301306  1  0
302307  1  0
303308  1  0
303309  1  6
307310  1  1
308311  1  6
310312  1  0
298299  2  0
301304  1  0
308307  1  0
 64 67  1  6
311313  1  0
 68 69  1  0
313314  2  0
 69 70  1  0
313315  1  0
313292  1  0
 70 71  1  0
291316  1  0
316272  1  0
 71 72  1  0
316317  1  0
 72 73  2  0
316318  2  0
 73 68  1  0
256319  1  0
319246  1  0
 65 68  1  6
319320  2  0
 69 74  2  0
319321  1  0
 71 75  2  0
239322  1  0
322229  1  0
 72 76  1  0
322323  2  0
 30 35  1  0
322324  1  0
M  END