
  SciTegic05171617282D

 37 41  0  0  0  0            999 V2000
    3.1347   -6.0355    0.0000 C   0  0
    4.0312   -5.2378    0.0000 C   0  0
    3.8933   -3.7570    0.0000 C   0  0
    2.5951   -3.0039    0.0000 C   0  0
    1.5548   -3.6021    0.0000 O   0  0
    2.5973   -1.5031    0.0000 N   0  0
    1.2990   -0.7500    0.0000 C   0  0
    1.2990    0.7500    0.0000 C   0  0
    0.0000    1.5000    0.0000 C   0  0
   -1.2990    0.7500    0.0000 C   0  0
   -2.5973    1.5031    0.0000 O   0  0
   -2.5951    3.0039    0.0000 C   0  0
   -3.8916    3.7585    0.0000 C   0  0
   -3.8864    5.2585    0.0000 C   0  0
   -2.5847    6.0040    0.0000 N   0  0
   -1.2883    5.2495    0.0000 C   0  0
    0.0156    5.9927    0.0000 N   0  0
    1.3116    5.2360    0.0000 C   0  0
    1.3054    4.0360    0.0000 O   0  0
    2.6155    5.9792    0.0000 C   0  0
    4.0362    5.9287    0.0000 C   0  0
    3.2906    7.2303    0.0000 C   0  0
   -1.2935    3.7495    0.0000 C   0  0
   -1.2990   -0.7500    0.0000 C   0  0
   -2.3383   -1.3500    0.0000 F   0  0
    0.0000   -1.5000    0.0000 C   0  0
    5.2447   -3.1359    0.0000 C   0  0
    5.4872   -1.9607    0.0000 O   0  0
    6.2484   -4.2507    0.0000 N   0  0
    7.7410   -4.0938    0.0000 C   0  0
    8.4493   -2.7772    0.0000 C   0  0
    9.9487   -2.7331    0.0000 C   0  0
   10.7365   -4.0096    0.0000 C   0  0
   10.0250   -5.3301    0.0000 C   0  0
    8.5257   -5.3742    0.0000 C   0  0
    5.4984   -5.5497    0.0000 N   0  0
    5.9865   -6.6460    0.0000 C   0  0
  1  2  1  0
  2  3  2  0
  3  4  1  0
  4  5  2  0
  4  6  1  0
  6  7  1  0
  7  8  2  0
  8  9  1  0
  9 10  2  0
 10 11  1  0
 11 12  1  0
 12 13  2  0
 13 14  1  0
 14 15  2  0
 15 16  1  0
 16 17  1  0
 17 18  1  0
 18 19  2  0
 18 20  1  0
 20 21  1  0
 21 22  1  0
 20 22  1  0
 16 23  2  0
 12 23  1  0
 10 24  1  0
 24 25  1  0
 24 26  2  0
  7 26  1  0
  3 27  1  0
 27 28  2  0
 27 29  1  0
 29 30  1  0
 30 31  2  0
 31 32  1  0
 32 33  2  0
 33 34  1  0
 34 35  2  0
 30 35  1  0
 29 36  1  0
  2 36  1  0
 36 37  1  0
M  END