
          05270816392D 1   1.00000     0.00000     0

 35 40  0     1  0            999 V2000
    9.5501   -5.1241    0.0000 C   0  0  0  0  0  0           0  0  0
    9.5488   -5.9471    0.0000 C   0  0  0  0  0  0           0  0  0
   10.9734   -5.1202    0.0000 C   0  0  0  0  0  0           0  0  0
   10.2644   -4.7113    0.0000 C   0  0  0  0  0  0           0  0  0
   10.9766   -5.9466    0.0000 C   0  0  0  0  0  0           0  0  0
   10.2651   -6.3611    0.0000 C   0  0  0  0  0  0           0  0  0
   10.2638   -7.1832    0.0000 C   0  0  0  0  0  0           0  0  0
   10.9768   -7.5971    0.0000 C   0  0  0  0  0  0           0  0  0
    8.9329   -6.4991    0.0000 N   0  0  0  0  0  0           0  0  0
    9.4794   -7.4378    0.0000 C   0  0  0  0  0  0           0  0  0
   11.6912   -6.3588    0.0000 C   0  0  2  0  0  0           0  0  0
   11.6921   -7.1866    0.0000 C   0  0  2  0  0  0           0  0  0
   12.4055   -7.5976    0.0000 N   0  0  3  0  0  0           0  0  0
   13.1226   -7.1852    0.0000 C   0  0  0  0  0  0           0  0  0
   13.1217   -6.3573    0.0000 C   0  0  1  0  0  0           0  0  0
   12.4037   -5.9419    0.0000 C   0  0  0  0  0  0           0  0  0
   11.6829   -8.0071    0.0000 H   0  0  0  0  0  0           0  0  0
   11.6829   -5.5321    0.0000 H   0  0  0  0  0  0           0  0  0
   13.8361   -5.9448    0.0000 C   0  0  0  0  0  0           0  0  0
   13.8361   -5.1198    0.0000 O   0  0  0  0  0  0           0  0  0
   14.5507   -6.3573    0.0000 N   0  0  3  0  0  0           0  0  0
   14.5455   -7.1876    0.0000 C   0  0  0  0  0  0           0  0  0
   15.2559   -7.6000    0.0000 C   0  0  0  0  0  0           0  0  0
   15.9728   -7.1910    0.0000 N   0  0  3  0  0  0           0  0  0
   15.9747   -6.3650    0.0000 C   0  0  0  0  0  0           0  0  0
   15.2599   -5.9480    0.0000 C   0  0  0  0  0  0           0  0  0
   16.6857   -7.6062    0.0000 C   0  0  0  0  0  0           0  0  0
   16.6776   -8.4301    0.0000 C   0  0  0  0  0  0           0  0  0
   17.3898   -8.8451    0.0000 C   0  0  0  0  0  0           0  0  0
   18.1068   -8.4352    0.0000 C   0  0  0  0  0  0           0  0  0
   18.1072   -7.6059    0.0000 C   0  0  0  0  0  0           0  0  0
   17.3945   -7.1947    0.0000 N   0  0  3  0  0  0           0  0  0
   12.4051   -8.4226    0.0000 C   0  0  0  0  0  0           0  0  0
   17.3935   -6.3697    0.0000 C   0  0  0  0  0  0           0  0  0
   18.8218   -7.1937    0.0000 O   0  0  0  0  0  0           0  0  0
 15 16  1  0     0  0
  6  7  1  0     0  0
 12 17  1  1     0  0
  7  8  1  0     0  0
 11 18  1  6     0  0
  8 12  1  0     0  0
 15 19  1  1     0  0
  3  4  2  0     0  0
 19 20  2  0     0  0
  2  9  1  0     0  0
 19 21  1  0     0  0
 21 22  1  0     0  0
  4  1  1  0     0  0
  7 10  2  0     0  0
  9 10  1  0     0  0
 11 12  1  0     0  0
  5  6  2  0     0  0
 21 26  1  0     0  0
 22 23  1  0     0  0
 23 24  1  0     0  0
 24 25  1  0     0  0
 25 26  1  0     0  0
  2  6  1  0     0  0
 24 27  1  0     0  0
 27 28  2  0     0  0
  5  3  1  0     0  0
 28 29  1  0     0  0
  1  2  2  0     0  0
 29 30  2  0     0  0
  5 11  1  0     0  0
 30 31  1  0     0  0
 11 16  1  0     0  0
 31 32  1  0     0  0
 32 27  1  0     0  0
 12 13  1  0     0  0
 13 33  1  0     0  0
 13 14  1  0     0  0
 32 34  1  0     0  0
 14 15  1  0     0  0
 31 35  2  0     0  0
M  END