
  SciTegic09081514192D

 59 65  0  0  0  0            999 V2000
   23.9113    2.1569    0.0000 C   0  0
   25.2051    1.3978    0.0000 C   0  0  2  0  0  0
   24.8830   -0.0672    0.0000 C   0  0
   23.3901   -0.2135    0.0000 C   0  0  2  0  0  0
   22.8110    1.1564    0.0000 N   0  0
   22.6194   -1.4982    0.0000 C   0  0
   23.2022   -2.5472    0.0000 N   0  0
   21.4195   -1.4788    0.0000 O   0  0
   26.3047    1.8782    0.0000 N   0  0
   15.9320    1.3580    0.0000 N   0  0
   -2.8728    2.0488    0.0000 C   0  0
   11.9863    0.9074    0.0000 C   0  0
   13.4510    0.5805    0.0000 C   0  0
   14.4673    1.6849    0.0000 C   0  0
    6.3668   -2.8970    0.0000 O   0  0
    9.5052    0.1299    0.0000 C   0  0
   15.0314    4.2189    0.0000 C   0  0
    0.6236    2.0488    0.0000 C   0  0
   16.9483    2.4624    0.0000 C   0  0  1  0  0  0
   20.8941    2.9129    0.0000 C   0  0  1  0  0  0
    4.5431   -1.4253    0.0000 C   0  0  1  0  0  0
   20.0648    7.3830    0.0000 N   0  0
    1.5812   -0.7794    0.0000 C   0  0  2  0  0  0
   23.6021    9.3655    0.0000 C   0  0
   -1.8484    0.9353    0.0000 C   0  0
   19.4293    3.2399    0.0000 N   0  0
   10.9700   -0.1970    0.0000 C   0  0
    7.0242   -0.6475    0.0000 N   0  0
    4.0754    0.0000    0.0000 C   0  0
   18.7719    0.9903    0.0000 O   0  0
   22.3583    6.6295    0.0000 C   0  0
   -2.2938   -0.4677    0.0000 C   0  0
   21.4629    5.4499    0.0000 C   0  0
    8.4890   -0.9745    0.0000 C   0  0
    2.4942    0.2895    0.0000 N   0  0
   -4.8103    0.2672    0.0000 C   0  0
   14.5797    5.6502    0.0000 C   0  0
   -4.3426    1.7370    0.0000 C   0  0
    2.0934    1.7370    0.0000 C   0  0
   -0.3340    0.9353    0.0000 C   0  0
   -1.0690   -1.3585    0.0000 N   0  0
   21.9103    4.0173    0.0000 C   0  0
   20.0462    5.9099    0.0000 C   0  0
   21.3458    1.4817    0.0000 C   0  0
   22.0893    9.2207    0.0000 C   0  0
    0.9230   -1.5323    0.0000 H   0  0
   14.1084    2.8300    0.0000 O   0  0
   23.8563    6.7636    0.0000 C   0  0
   13.4082    5.9103    0.0000 C   0  0
    2.0934   -2.2270    0.0000 C   0  0
   -3.7636   -0.8240    0.0000 C   0  0
    0.0891   -0.4677    0.0000 C   0  0
   20.5351    0.5970    0.0000 O   0  0
   21.4854    7.8432    0.0000 C   0  0
   16.4965    3.8936    0.0000 C   0  0
   18.4131    2.1354    0.0000 C   0  0
   24.4749    8.1517    0.0000 C   0  0
    6.0080   -1.7520    0.0000 C   0  0
    3.5632   -2.4942    0.0000 C   0  0
  1  2  1  0
  2  3  1  0
  3  4  1  0
  4  5  1  0
  5  1  1  0
  4  6  1  1
  6  7  1  0
  6  8  2  0
  2  9  1  1
 23 35  1  0
 41 52  1  0
 40 25  1  0
 56 26  1  0
 42 33  1  0
 18 40  1  0
 11 38  2  0
 58 15  2  0
 19 55  1  1
 16 27  1  0
 24 57  1  0
 27 12  1  0
 13 14  1  0
 14 47  2  0
 26 20  1  0
 31 54  2  0
 43 22  1  0
 32 25  2  0
 34 16  1  0
 25 11  1  0
 10 19  1  0
 20 44  1  0
 19 56  1  0
 57 48  2  0
 22 54  1  0
 28 34  1  0
 21 58  1  1
 37 49  1  0
 33 43  2  0
 38 36  1  0
 52 40  2  0
 23 46  1  1
 31 33  1  0
 23 52  1  0
 56 30  2  0
 48 31  1  0
 35 39  1  0
 50 59  1  0
 45 24  2  0
 23 50  1  0
 59 21  1  0
 44  5  1  0
 51 32  1  0
 12 13  1  0
 14 10  1  0
 21 29  1  0
 44 53  2  0
 58 28  1  0
 17 37  1  0
 39 18  1  0
 35 29  1  0
 20 42  1  1
 32 41  1  0
 54 45  1  0
 55 17  1  0
 36 51  2  0
M  END