
  SciTegic11201309402D

 34 37  0  0  1  0            999 V2000
    7.8083   -0.7042    0.0000 C   0  0
    7.8083   -1.5292    0.0000 O   0  0
    8.5204   -1.9375    0.0000 C   0  0
    9.2324   -1.5292    0.0000 C   0  0
    9.2324   -0.7042    0.0000 N   0  0
    8.5204   -0.2875    0.0000 C   0  0
    9.9480   -0.2938    0.0000 C   0  0
   10.6613   -0.7084    0.0000 C   0  0
    9.9505    0.5312    0.0000 O   0  0
   11.3770   -0.2979    0.0000 C   0  0  1  0  0  0
   11.3708    0.5292    0.0000 C   0  0
   12.0924   -0.7088    0.0000 C   0  0
   12.0942   -1.5338    0.0000 O   0  0
   12.8059   -0.2947    0.0000 N   0  0
   13.5213   -0.7056    0.0000 C   0  0  2  0  0  0
   13.2674   -1.4902    0.0000 C   0  0
   13.9348   -1.9752    0.0000 C   0  0
   14.6023   -1.4903    0.0000 N   0  0
   14.3473   -0.7057    0.0000 C   0  0
   13.9154    0.0235    0.0000 C   0  0
   14.3100    0.7511    0.0000 N   0  0
   15.3869   -1.7452    0.0000 C   0  0
   15.5520   -2.5503    0.0000 C   0  0
   16.3326   -2.8060    0.0000 C   0  0
   16.9488   -2.2569    0.0000 C   0  0
   16.7790   -1.4486    0.0000 C   0  0
   15.9930   -1.1894    0.0000 C   0  0
   12.0822    0.9470    0.0000 C   0  0
   12.7951    0.5363    0.0000 C   0  0
   13.5043    0.9506    0.0000 C   0  0
   13.5025    1.7760    0.0000 C   0  0
   12.7851    2.1853    0.0000 C   0  0
   12.0696    1.7694    0.0000 C   0  0
   14.2154    2.1911    0.0000 C   0  0
  1  6  1  0
  7  9  2  0
 16 17  1  0
 17 18  1  0
 18 19  1  0
  2  3  1  0
 15 20  1  6
 10  8  1  1
 20 21  3  0
  3  4  1  0
 18 22  1  0
 22 23  1  0
 10 11  1  0
  4  5  1  0
 10 12  1  0
  5  6  1  0
 12 13  2  0
 22 27  1  0
 23 24  1  0
 24 25  1  0
 25 26  1  0
 26 27  1  0
 11 28  1  0
 28 29  1  0
 12 14  1  0
  5  7  1  0
 14 15  1  0
 15 16  1  0
  1  2  1  0
 28 33  1  0
 29 30  1  0
 30 31  1  0
 31 32  1  0
 32 33  1  0
  7  8  1  0
 31 34  1  0
 15 19  1  0
M  END