
          11280715102D 1   1.00000     0.00000     0

 28 31  0     0  0            999 V2000
    2.3000   -2.5542    0.0000 C   0  0  0  0  0  0           0  0  0
    2.3000   -1.7292    0.0000 N   0  0  3  0  0  0           0  0  0
    1.5875   -2.9667    0.0000 C   0  0  0  0  0  0           0  0  0
    4.4375   -0.4917    0.0000 N   0  0  3  0  0  0           0  0  0
    0.8292   -2.6292    0.0000 S   0  0  0  0  0  0           0  0  0
    3.0125   -1.3167    0.0000 C   0  0  3  0  0  0           0  0  0
    1.5875   -1.3167    0.0000 C   0  0  0  0  0  0           0  0  0
    3.0167   -2.9667    0.0000 O   0  0  0  0  0  0           0  0  0
    3.7250   -1.7292    0.0000 C   0  0  0  0  0  0           0  0  0
    3.0125   -0.4917    0.0000 C   0  0  0  0  0  0           0  0  0
    1.5000   -3.7917    0.0000 C   0  0  0  0  0  0           0  0  0
    0.2792   -3.2500    0.0000 C   0  0  0  0  0  0           0  0  0
    0.7042   -3.9667    0.0000 C   0  0  0  0  0  0           0  0  0
    3.7250   -0.0792    0.0000 C   0  0  0  0  0  0           0  0  0
    4.4375   -1.3167    0.0000 C   0  0  0  0  0  0           0  0  0
    5.1542   -0.0792    0.0000 C   0  0  0  0  0  0           0  0  0
    1.5875   -0.4917    0.0000 C   0  0  0  0  0  0           0  0  0
    0.8750   -1.7375    0.0000 C   0  0  0  0  0  0           0  0  0
    0.1542   -0.5000    0.0000 C   0  0  0  0  0  0           0  0  0
    0.1625   -1.3292    0.0000 C   0  0  0  0  0  0           0  0  0
    0.8750   -0.0792    0.0000 C   0  0  0  0  0  0           0  0  0
   -0.5583   -0.0875    0.0000 Br  0  0  0  0  0  0           0  0  0
    5.8667   -0.5000    0.0000 C   0  0  0  0  0  0           0  0  0
    6.5792   -0.0875    0.0000 C   0  0  0  0  0  0           0  0  0
    5.8625   -1.3250    0.0000 C   0  0  0  0  0  0           0  0  0
    6.5750   -1.7375    0.0000 C   0  0  0  0  0  0           0  0  0
    7.2917   -0.5000    0.0000 C   0  0  0  0  0  0           0  0  0
    7.2917   -1.3292    0.0000 C   0  0  0  0  0  0           0  0  0
  2  1  1  0     0  0
  3  1  1  0     0  0
  4 14  1  0     0  0
  5  3  1  0     0  0
  6  2  1  0     0  0
  7  2  1  0     0  0
  8  1  2  0     0  0
  9  6  1  0     0  0
 10  6  1  0     0  0
 11  3  2  0     0  0
 12  5  1  0     0  0
 13 11  1  0     0  0
 14 10  1  0     0  0
 15  9  1  0     0  0
 16  4  1  0     0  0
 17  7  2  0     0  0
 18  7  1  0     0  0
 19 20  1  0     0  0
 20 18  2  0     0  0
 21 17  1  0     0  0
 22 19  1  0     0  0
 23 16  1  0     0  0
 24 23  1  0     0  0
 25 23  2  0     0  0
 26 25  1  0     0  0
 27 24  2  0     0  0
 28 26  2  0     0  0
 13 12  2  0     0  0
 19 21  2  0     0  0
  4 15  1  0     0  0
 28 27  1  0     0  0
M  END