
  SciTegic02011310442D

 39 44  0  0  0  0            999 V2000
    3.0332  -20.1848    0.0000 N   0  0
    3.7429  -19.7754    0.0000 C   0  0
    3.7401  -18.9527    0.0000 N   0  0
    3.0315  -18.5475    0.0000 C   0  0
    2.3252  -19.7759    0.0000 N   0  0
    2.3264  -18.9548    0.0000 C   0  0
    1.5459  -18.6999    0.0000 C   0  0
    1.0622  -19.3634    0.0000 C   0  0
    1.5439  -20.0283    0.0000 C   0  0
    4.4513  -20.1829    0.0000 S   0  0
    5.1583  -19.7732    0.0000 C   0  0
    3.0297  -17.7303    0.0000 N   0  0
    3.7365  -17.3201    0.0000 C   0  0
    5.8633  -20.1811    0.0000 C   0  0
    6.5699  -19.7721    0.0000 C   0  0
    6.5691  -18.9540    0.0000 C   0  0
    5.8558  -18.5467    0.0000 C   0  0
    5.1521  -18.9580    0.0000 C   0  0
    4.4815  -17.6521    0.0000 C   0  0
    5.0270  -17.0436    0.0000 C   0  0
    4.6168  -16.3368    0.0000 N   0  0
    3.8179  -16.5085    0.0000 N   0  0
    5.8399  -17.1273    0.0000 C   0  0
    7.2756  -18.5433    0.0000 N   0  0
    7.9845  -18.9499    0.0000 C   0  0
    8.6910  -18.5392    0.0000 C   0  0
    9.3999  -18.9458    0.0000 N   0  0
    7.9869  -19.7671    0.0000 O   0  0
    9.4849  -19.7561    0.0000 C   0  0
   10.2847  -19.9237    0.0000 C   0  0
   10.6913  -19.2147    0.0000 C   0  0
   10.1426  -18.6091    0.0000 C   0  0
   10.6193  -20.6692    0.0000 C   0  0
   10.1408  -21.3317    0.0000 O   0  0
   11.4322  -20.7523    0.0000 N   0  0
   11.8412  -21.4547    0.0000 C   0  0
   12.6401  -21.2825    0.0000 C   0  0
   12.7231  -20.4695    0.0000 C   0  0
   11.9756  -20.1394    0.0000 C   0  0
  5  1  1  0
  1  2  2  0
  2  3  1  0
  3  4  2  0
  4  6  1  0
  5  6  1  0
  6  7  2  0
  7  8  1  0
  8  9  2  0
  9  5  1  0
  2 10  1  0
 10 11  1  0
  4 12  1  0
 12 13  1  0
 11 14  2  0
 14 15  1  0
 15 16  2  0
 16 17  1  0
 17 18  2  0
 18 11  1  0
 13 19  1  0
 19 20  2  0
 20 21  1  0
 21 22  1  0
 22 13  2  0
 20 23  1  0
 16 24  1  0
 24 25  1  0
 25 26  1  0
 26 27  1  0
 25 28  2  0
 27 29  1  0
 29 30  1  0
 30 31  1  0
 31 32  1  0
 32 27  1  0
 30 33  1  0
 33 34  2  0
 33 35  1  0
 35 36  1  0
 36 37  1  0
 37 38  1  0
 38 39  1  0
 39 35  1  0
M  END