
          11280715132D 1   1.00000     0.00000     0

 29 31  0     0  0            999 V2000
    6.0667   -5.4917    0.0000 C   0  0  0  0  0  0           0  0  0
    5.3542   -5.0792    0.0000 C   0  0  0  0  0  0           0  0  0
    0.5667   -5.9042    0.0000 N   0  0  3  0  0  0           0  0  0
   -0.1458   -5.4917    0.0000 C   0  0  0  0  0  0           0  0  0
    2.1250   -6.4542    0.0000 N   0  0  3  0  0  0           0  0  0
    6.7792   -5.0792    0.0000 N   0  0  3  0  0  0           0  0  0
    4.6375   -5.4917    0.0000 C   0  0  0  0  0  0           0  0  0
    6.0667   -6.3167    0.0000 O   0  0  0  0  0  0           0  0  0
    0.7250   -6.7167    0.0000 C   0  0  0  0  0  0           0  0  0
    1.1917   -5.3750    0.0000 C   0  0  0  0  0  0           0  0  0
    4.6375   -3.8417    0.0000 N   0  0  0  0  0  0           0  0  0
   -0.1458   -4.6667    0.0000 C   0  0  0  0  0  0           0  0  0
    5.3542   -4.2500    0.0000 C   0  0  0  0  0  0           0  0  0
    1.9667   -5.6417    0.0000 C   0  0  0  0  0  0           0  0  0
    1.5000   -6.9917    0.0000 C   0  0  0  0  0  0           0  0  0
    4.6417   -6.2292    0.0000 N   0  0  0  0  0  0           0  0  0
    3.9250   -5.0792    0.0000 C   0  0  0  0  0  0           0  0  0
    0.5667   -4.2500    0.0000 O   0  0  0  0  0  0           0  0  0
    2.7875   -6.7542    0.0000 C   0  0  0  0  0  0           0  0  0
    3.3792   -6.3417    0.0000 C   0  0  0  0  0  0           0  0  0
    3.9250   -4.2542    0.0000 C   0  0  0  0  0  0           0  0  0
   -0.8625   -5.9042    0.0000 C   0  0  0  0  0  0           0  0  0
    6.7792   -4.2542    0.0000 C   0  0  0  0  0  0           0  0  0
    7.5000   -5.4875    0.0000 C   0  0  0  0  0  0           0  0  0
    4.0417   -6.6417    0.0000 C   0  0  0  0  0  0           0  0  0
   -0.8625   -4.2542    0.0000 C   0  0  0  0  0  0           0  0  0
    1.2792   -4.6542    0.0000 C   0  0  0  0  0  0           0  0  0
   -1.5750   -5.4917    0.0000 C   0  0  0  0  0  0           0  0  0
   -1.5750   -4.6667    0.0000 C   0  0  0  0  0  0           0  0  0
  2  1  1  0     0  0
  3  9  1  0     0  0
  4  3  1  0     0  0
  5 19  1  0     0  0
  6  1  1  0     0  0
  7  2  2  0     0  0
  8  1  2  0     0  0
  9 15  1  0     0  0
 10 14  1  0     0  0
 11 13  2  0     0  0
 12  4  1  0     0  0
 13  2  1  0     0  0
 14  5  1  0     0  0
 15  5  1  0     0  0
 16  7  1  0     0  0
 17  7  1  0     0  0
 18 12  1  0     0  0
 19 20  1  0     0  0
 20 25  1  0     0  0
 21 11  1  0     0  0
 22  4  2  0     0  0
 23  6  1  0     0  0
 24  6  1  0     0  0
 25 16  1  0     0  0
 26 12  2  0     0  0
 27 18  1  0     0  0
 28 22  1  0     0  0
 29 28  2  0     0  0
 21 17  2  0     0  0
  3 10  1  0     0  0
 29 26  1  0     0  0
M  END