
  SciTegic12231509382D

 29 32  0  0  0  0            999 V2000
    0.4188   -4.1250    0.0000 O   0  0
    0.4188   -9.0750    0.0000 O   0  0
    0.4188   -5.7750    0.0000 O   0  0
   -1.0101   -8.2500    0.0000 N   0  0
   -1.0101   -6.6000    0.0000 N   0  0
   -1.0101   -9.0750    0.0000 C   0  0
    1.1333   -2.8875    0.0000 C   0  0
    0.4188   -3.3000    0.0000 C   0  0
    1.1333   -2.0625    0.0000 C   0  0
   -0.2956   -9.4875    0.0000 C   0  0
   -1.7246   -7.8375    0.0000 C   0  0
   -0.2956   -7.8375    0.0000 C   0  0
   -1.7246   -9.4875    0.0000 C   0  0
    1.8478   -3.3000    0.0000 C   0  0
   -1.7246   -7.0125    0.0000 C   0  0
   -0.2956   -7.0125    0.0000 C   0  0
   -0.2956   -2.8875    0.0000 C   0  0
    0.4188   -1.6500    0.0000 C   0  0
    1.8478   -1.6500    0.0000 C   0  0
   -0.2956  -10.3125    0.0000 C   0  0
   -1.0101   -5.7750    0.0000 C   0  0
   -0.2956   -5.3625    0.0000 C   0  0
   -0.2956   -2.0625    0.0000 C   0  0
   -0.2956   -4.5375    0.0000 C   0  0
   -1.7246  -10.3125    0.0000 C   0  0
    2.5622   -2.8875    0.0000 C   0  0
   -1.0101  -10.7250    0.0000 C   0  0
    2.5622   -2.0625    0.0000 C   0  0
    1.1333   -9.4875    0.0000 C   0  0
  1  8  1  0
  1 24  1  0
  2 10  1  0
  2 29  1  0
  3 22  1  0
  4  6  1  0
  4 11  1  0
  4 12  1  0
  5 15  1  0
  5 16  1  0
  5 21  1  0
  6 10  1  0
  6 13  2  0
  7  8  1  0
  7  9  1  0
  7 14  2  0
  8 17  2  0
  9 18  1  0
  9 19  2  0
 10 20  2  0
 11 15  1  0
 12 16  1  0
 13 25  1  0
 14 26  1  0
 17 23  1  0
 18 23  2  0
 19 28  1  0
 20 27  1  0
 21 22  1  0
 22 24  1  0
 25 27  2  0
 26 28  2  0
M  END