
  SciTegic11201309402D

 79 83  0  0  0  0            999 V2000
    4.8616    7.0420    0.0000 C   0  0
    4.1471    6.6295    0.0000 C   0  0
    4.1471    5.8045    0.0000 C   0  0
    4.8616    5.3920    0.0000 C   0  0
    5.5761    5.8045    0.0000 C   0  0
    5.5761    6.6295    0.0000 C   0  0
    4.8616    4.5670    0.0000 C   0  0
    5.5761    4.1545    0.0000 C   0  0  2  0  0  0
    4.1471    4.1545    0.0000 C   0  0
    3.4327    4.5670    0.0000 C   0  0
    2.7182    4.1545    0.0000 C   0  0
    2.7182    3.3295    0.0000 C   0  0
    3.4327    2.9169    0.0000 C   0  0
    4.1472    3.3294    0.0000 C   0  0
    5.5761    3.3295    0.0000 C   0  0
    6.2905    4.5670    0.0000 N   0  0
    6.2905    2.9170    0.0000 O   0  0
    4.8616    2.9170    0.0000 N   0  0
    4.8616    2.0920    0.0000 C   0  0  1  0  0  0
    4.1471    1.6795    0.0000 C   0  0
    5.5761    1.6795    0.0000 C   0  0
    5.5761    0.8545    0.0000 N   0  0
    6.2905    2.0920    0.0000 O   0  0
    4.1471    0.8545    0.0000 C   0  0
    6.2905    0.4420    0.0000 C   0  0  1  0  0  0
    6.2905   -0.3830    0.0000 C   0  0
    7.0050    0.8545    0.0000 C   0  0
    7.7195    0.4420    0.0000 N   0  0
    7.0050    1.6795    0.0000 O   0  0
    8.4340    0.8545    0.0000 C   0  0  1  0  0  0
    9.1484    0.4420    0.0000 C   0  0
    8.4340    1.6795    0.0000 C   0  0
    5.5761   -0.7955    0.0000 C   0  0
    5.5761   -1.6205    0.0000 C   0  0
    4.8616   -2.0330    0.0000 O   0  0
    6.2905   -2.0330    0.0000 N   0  0
    9.1484    2.0920    0.0000 N   0  0
    7.7195    2.0920    0.0000 O   0  0
    9.1484   -0.3830    0.0000 C   0  0
    9.8629   -0.7955    0.0000 O   0  0
    8.4340   -0.7955    0.0000 N   0  0
    9.1484    2.9170    0.0000 C   0  0  2  0  0  0
    9.8629    3.3295    0.0000 C   0  0
    8.4340    3.3295    0.0000 C   0  0
    8.4340    4.1545    0.0000 S   0  0
    8.4340    4.9795    0.0000 S   0  0
    7.6090    4.9795    0.0000 C   0  0
    7.0050    4.1545    0.0000 C   0  0
    7.5957    4.3975    0.0000 C   0  0
    6.9501    3.3313    0.0000 O   0  0
    9.8629    4.1545    0.0000 N   0  0
   10.5774    2.9170    0.0000 O   0  0
   10.5303    4.6394    0.0000 C   0  0  1  0  0  0
   10.2754    5.4240    0.0000 C   0  0
    9.4504    5.4240    0.0000 C   0  0
    9.1955    4.6394    0.0000 C   0  0
   11.3150    4.3845    0.0000 C   0  0
   11.9280    4.9365    0.0000 N   0  0
   11.4865    3.5775    0.0000 O   0  0
   12.7127    4.6816    0.0000 C   0  0  2  0  0  0
   13.3258    5.2336    0.0000 C   0  0
   14.1104    4.9787    0.0000 N   0  0
   13.1542    6.0406    0.0000 O   0  0
   12.8842    3.8746    0.0000 C   0  0
   14.7235    5.5307    0.0000 C   0  0
   15.5081    5.2758    0.0000 C   0  0
   16.1212    5.8278    0.0000 N   0  0
   15.6796    4.4688    0.0000 O   0  0
   13.6688    3.6197    0.0000 C   0  0
   13.8404    2.8127    0.0000 C   0  0
   14.6373    2.5992    0.0000 N   0  0
   14.8508    1.8023    0.0000 C   0  0
   15.6477    1.5888    0.0000 N   0  0
   14.2674    1.2189    0.0000 N   0  0
    3.4326    0.4420    0.0000 C   0  0
    3.4326   -0.3830    0.0000 C   0  0
    4.1471   -0.7955    0.0000 C   0  0
    4.8616   -0.3830    0.0000 C   0  0
    4.8616    0.4420    0.0000 C   0  0
  1  2  1  0
  1  6  2  0
  2  3  2  0
  3  4  1  0
  4  5  2  0
  5  6  1  0
  4  7  1  0
  8  7  1  1
  7  9  1  0
  9 10  1  0
  9 14  2  0
 10 11  2  0
 11 12  1  0
 12 13  2  0
 13 14  1  0
  8 15  1  0
  8 16  1  0
 15 17  2  0
 15 18  1  0
 18 19  1  0
 19 20  1  6
 19 21  1  0
 21 22  1  0
 21 23  2  0
 20 24  1  0
 22 25  1  0
 25 26  1  6
 25 27  1  0
 27 28  1  0
 27 29  2  0
 28 30  1  0
 30 31  1  6
 30 32  1  0
 26 33  1  0
 33 34  1  0
 34 35  2  0
 34 36  1  0
 32 37  1  0
 32 38  2  0
 31 39  1  0
 39 40  2  0
 39 41  1  0
 42 37  1  0
 42 43  1  1
 42 44  1  0
 44 45  1  0
 45 46  1  0
 46 47  1  0
 16 48  1  0
 48 49  1  0
 49 47  1  0
 48 50  2  0
 43 51  1  0
 43 52  2  0
 51 53  1  0
 51 56  1  0
 53 54  1  0
 54 55  1  0
 55 56  1  0
 53 57  1  1
 57 58  1  0
 57 59  2  0
 60 58  1  6
 60 61  1  0
 61 62  1  0
 61 63  2  0
 60 64  1  0
 62 65  1  0
 65 66  1  0
 66 67  1  0
 66 68  2  0
 64 69  1  0
 69 70  1  0
 70 71  1  0
 71 72  1  0
 72 73  2  0
 72 74  1  0
 24 75  1  0
 24 79  2  0
 75 76  2  0
 76 77  1  0
 77 78  2  0
 78 79  1  0
M  END