
  SciTegic12231509382D

 28 30  0  0  1  0            999 V2000
    2.6435    0.8238    0.0000 C   0  0
    1.8185    0.8238    0.0000 C   0  0
    1.4060    0.1093    0.0000 C   0  0
    0.5810    0.1093    0.0000 C   0  0  2  0  0  0
    0.2230   -0.6340    0.0000 C   0  0  1  0  0  0
   -0.5813   -0.8176    0.0000 C   0  0
   -1.2263   -0.3032    0.0000 C   0  0
   -1.9408   -0.7157    0.0000 C   0  0
   -2.6553   -0.3032    0.0000 C   0  0
   -2.6553    0.5218    0.0000 C   0  0
   -1.9408    0.9343    0.0000 C   0  0
   -1.2263    0.5218    0.0000 C   0  0
   -0.5813    1.0362    0.0000 N   0  0
   -0.7649    1.8405    0.0000 C   0  0
   -1.5532    2.0837    0.0000 C   0  0
   -1.7368    2.8880    0.0000 N   0  0
   -2.5252    3.1312    0.0000 C   0  0
   -1.1321    3.4491    0.0000 C   0  0
    0.2230    0.8526    0.0000 C   0  0
    0.7374    1.4976    0.0000 O   0  0
    0.7374   -1.2790    0.0000 C   0  0
    1.5532   -1.1560    0.0000 C   0  0
    2.0675   -1.8011    0.0000 C   0  0
    1.7661   -2.5690    0.0000 C   0  0
    2.2805   -3.2140    0.0000 O   0  0
    3.0963   -3.0911    0.0000 C   0  0
    0.9504   -2.6920    0.0000 C   0  0
    0.4360   -2.0470    0.0000 C   0  0
  1  2  1  0
  2  3  1  0
  4  3  1  6
  4  5  1  0
  5  6  1  0
  6  7  1  0
  7  8  2  0
  8  9  1  0
  9 10  2  0
 10 11  1  0
 11 12  2  0
  7 12  1  0
 12 13  1  0
 13 14  1  0
 14 15  1  0
 15 16  1  0
 16 17  1  0
 16 18  1  0
 13 19  1  0
  4 19  1  0
 19 20  2  0
  5 21  1  6
 21 22  2  0
 22 23  1  0
 23 24  2  0
 24 25  1  0
 25 26  1  0
 24 27  1  0
 27 28  2  0
 21 28  1  0
M  END