
          11280715382D 1   1.00000     0.00000     0

 42 45  0     1  0            999 V2000
    2.4000   -7.2875    0.0000 N   0  0  3  0  0  0           0  0  0
    3.2000   -7.1542    0.0000 C   0  0  0  0  0  0           0  0  0
    1.9000   -5.9667    0.0000 C   0  0  0  0  0  0           0  0  0
    3.5792   -6.3917    0.0000 C   0  0  1  0  0  0           0  0  0
    1.9042   -6.8000    0.0000 C   0  0  0  0  0  0           0  0  0
    3.2167   -5.6167    0.0000 C   0  0  1  0  0  0           0  0  0
    1.1750   -4.7292    0.0000 C   0  0  3  0  0  0           0  0  0
    1.1792   -5.5542    0.0000 C   0  0  0  0  0  0           0  0  0
    2.4167   -5.4667    0.0000 C   0  0  0  0  0  0           0  0  0
    2.1500   -8.0750    0.0000 C   0  0  0  0  0  0           0  0  0
    4.4042   -6.4125    0.0000 O   0  0  0  0  0  0           0  0  0
    4.8042   -7.1292    0.0000 C   0  0  0  0  0  0           0  0  0
    3.7167   -4.9667    0.0000 C   0  0  0  0  0  0           0  0  0
    3.6875   -7.8167    0.0000 O   0  0  0  0  0  0           0  0  0
    4.3875   -7.8375    0.0000 O   0  0  0  0  0  0           0  0  0
    0.5042   -4.1875    0.0000 F   0  0  0  0  0  0           0  0  0
    1.1750   -3.9792    0.0000 F   0  0  0  0  0  0           0  0  0
    1.8417   -4.1792    0.0000 F   0  0  0  0  0  0           0  0  0
    3.4042   -4.2125    0.0000 C   0  0  0  0  0  0           0  0  0
    4.5375   -5.0792    0.0000 C   0  0  0  0  0  0           0  0  0
    1.3417   -8.2542    0.0000 C   0  0  0  0  0  0           0  0  0
    1.0917   -9.0375    0.0000 N   0  0  3  0  0  0           0  0  0
    4.7292   -3.6667    0.0000 C   0  0  0  0  0  0           0  0  0
    1.1792   -7.2125    0.0000 C   0  0  0  0  0  0           0  0  0
    5.0417   -4.4292    0.0000 C   0  0  0  0  0  0           0  0  0
    3.9042   -3.5542    0.0000 C   0  0  0  0  0  0           0  0  0
    0.4667   -5.9750    0.0000 C   0  0  0  0  0  0           0  0  0
    5.2292   -3.0125    0.0000 O   0  0  0  0  0  0           0  0  0
    2.2750  -12.4375    0.0000 C   0  0  0  0  0  0           0  0  0
    0.4667   -6.8000    0.0000 C   0  0  0  0  0  0           0  0  0
    5.6292   -7.1417    0.0000 C   0  0  0  0  0  0           0  0  0
    1.6542   -9.6417    0.0000 C   0  0  0  0  0  0           0  0  0
    0.2917   -9.2167    0.0000 C   0  0  0  0  0  0           0  0  0
    1.7167  -11.8292    0.0000 C   0  0  0  0  0  0           0  0  0
    6.0500   -3.1167    0.0000 C   0  0  0  0  0  0           0  0  0
    2.0167  -13.2167    0.0000 C   0  0  0  0  0  0           0  0  0
    3.0750  -12.2542    0.0000 C   0  0  0  0  0  0           0  0  0
    1.4042  -10.4292    0.0000 C   0  0  0  0  0  0           0  0  0
    1.9625  -11.0417    0.0000 C   0  0  0  0  0  0           0  0  0
    3.6292  -12.8542    0.0000 C   0  0  0  0  0  0           0  0  0
    2.5792  -13.8292    0.0000 C   0  0  0  0  0  0           0  0  0
    3.3875  -13.6500    0.0000 C   0  0  0  0  0  0           0  0  0
  2  1  1  0     0  0
  3  5  1  0     0  0
  4  2  1  0     0  0
  5  1  1  0     0  0
  6  4  1  0     0  0
  7  8  1  0     0  0
  8  3  2  0     0  0
  9  3  1  0     0  0
 10  1  1  0     0  0
  4 11  1  1     0  0
 12 11  1  0     0  0
  6 13  1  1     0  0
 14  2  2  0     0  0
 15 12  2  0     0  0
 16  7  1  0     0  0
 17  7  1  0     0  0
 18  7  1  0     0  0
 19 13  1  0     0  0
 20 13  2  0     0  0
 21 10  1  0     0  0
 22 21  1  0     0  0
 23 25  2  0     0  0
 24  5  2  0     0  0
 25 20  1  0     0  0
 26 19  2  0     0  0
 27 30  2  0     0  0
 28 23  1  0     0  0
 29 34  1  0     0  0
 30 24  1  0     0  0
 31 12  1  0     0  0
 32 22  1  0     0  0
 33 22  1  0     0  0
 34 39  1  0     0  0
 35 28  1  0     0  0
 36 29  2  0     0  0
 37 29  1  0     0  0
 38 32  1  0     0  0
 39 38  1  0     0  0
 40 37  2  0     0  0
 41 36  1  0     0  0
 42 40  1  0     0  0
  6  9  1  0     0  0
  8 27  1  0     0  0
 26 23  1  0     0  0
 41 42  2  0     0  0
M  END