
          11280714502D 1   1.00000     0.00000     0

 26 28  0     0  0            999 V2000
   10.2500   -1.6167    0.0000 C   0  0  0  0  0  0           0  0  0
    9.8417   -2.3375    0.0000 N   0  0  0  0  0  0           0  0  0
    7.3667   -2.3292    0.0000 N   0  0  3  0  0  0           0  0  0
    4.7292   -3.6292    0.0000 C   0  0  0  0  0  0           0  0  0
    9.8292   -0.9042    0.0000 O   0  0  0  0  0  0           0  0  0
   11.0750   -1.6167    0.0000 C   0  0  0  0  0  0           0  0  0
    3.9042   -3.6375    0.0000 O   0  0  0  0  0  0           0  0  0
    9.0167   -2.3292    0.0000 C   0  0  3  0  0  0           0  0  0
    5.1417   -4.3417    0.0000 C   0  0  0  0  0  0           0  0  0
    8.6042   -1.6167    0.0000 C   0  0  0  0  0  0           0  0  0
    8.6000   -3.0417    0.0000 C   0  0  0  0  0  0           0  0  0
    7.7792   -1.6125    0.0000 C   0  0  0  0  0  0           0  0  0
    7.7792   -3.0417    0.0000 C   0  0  0  0  0  0           0  0  0
    6.5417   -2.3292    0.0000 C   0  0  0  0  0  0           0  0  0
    5.9625   -2.9167    0.0000 C   0  0  0  0  0  0           0  0  0
    5.1375   -2.9167    0.0000 C   0  0  0  0  0  0           0  0  0
   11.4792   -2.3375    0.0000 C   0  0  0  0  0  0           0  0  0
   11.4792   -0.9042    0.0000 C   0  0  0  0  0  0           0  0  0
    4.7375   -5.0542    0.0000 C   0  0  0  0  0  0           0  0  0
    5.9667   -4.3417    0.0000 C   0  0  0  0  0  0           0  0  0
   12.3042   -0.9042    0.0000 C   0  0  0  0  0  0           0  0  0
    6.3792   -5.0542    0.0000 C   0  0  0  0  0  0           0  0  0
    5.1417   -5.7667    0.0000 C   0  0  0  0  0  0           0  0  0
   12.3042   -2.3375    0.0000 C   0  0  0  0  0  0           0  0  0
    5.9667   -5.7667    0.0000 C   0  0  0  0  0  0           0  0  0
   12.7167   -1.6167    0.0000 C   0  0  0  0  0  0           0  0  0
  2  1  1  0     0  0
  3 13  1  0     0  0
  4 16  1  0     0  0
  5  1  2  0     0  0
  6  1  1  0     0  0
  7  4  2  0     0  0
  8  2  1  0     0  0
  9  4  1  0     0  0
 10  8  1  0     0  0
 11  8  1  0     0  0
 12 10  1  0     0  0
 13 11  1  0     0  0
 14  3  1  0     0  0
 15 14  1  0     0  0
 16 15  1  0     0  0
 17  6  2  0     0  0
 18  6  1  0     0  0
 19  9  2  0     0  0
 20  9  1  0     0  0
 21 18  2  0     0  0
 22 20  2  0     0  0
 23 19  1  0     0  0
 24 17  1  0     0  0
 25 22  1  0     0  0
 26 21  1  0     0  0
 24 26  2  0     0  0
 12  3  1  0     0  0
 23 25  2  0     0  0
M  END