
  Mrv0541 05211314572D          

 26 27  0  0  0  0            999 V2000
   -1.4043    1.4593    0.0000 C   0  0  0  0  0  0  0  0  0  0  0  0
   -1.8893    0.7918    0.0000 N   0  0  0  0  0  0  0  0  0  0  0  0
   -2.7097    0.8780    0.0000 C   0  0  0  0  0  0  0  0  0  0  0  0
   -3.0453    1.6317    0.0000 C   0  0  0  0  0  0  0  0  0  0  0  0
   -2.5604    2.2992    0.0000 N   0  0  0  0  0  0  0  0  0  0  0  0
   -1.7399    2.2129    0.0000 C   0  0  0  0  0  0  0  0  0  0  0  0
   -1.5537    0.0381    0.0000 C   0  0  0  0  0  0  0  0  0  0  0  0
   -0.7467   -0.1334    0.0000 S   0  0  0  0  0  0  0  0  0  0  0  0
   -0.6605   -0.9539    0.0000 C   0  0  0  0  0  0  0  0  0  0  0  0
   -1.4142   -1.2894    0.0000 C   0  0  0  0  0  0  0  0  0  0  0  0
   -1.9662   -0.6763    0.0000 N   0  0  0  0  0  0  0  0  0  0  0  0
    0.0540   -1.3664    0.0000 C   0  0  0  0  0  0  0  0  0  0  0  0
    0.7685   -0.9539    0.0000 C   0  0  0  0  0  0  0  0  0  0  0  0
    1.4829   -1.3664    0.0000 N   0  0  0  0  0  0  0  0  0  0  0  0
   -2.8959    3.0528    0.0000 C   0  0  0  0  0  0  0  0  0  0  0  0
   -2.4110    3.7203    0.0000 C   0  0  0  0  0  0  0  0  0  0  0  0
   -2.7466    4.4740    0.0000 C   0  0  0  0  0  0  0  0  0  0  0  0
    1.4829   -2.1914    0.0000 C   0  0  0  0  0  0  0  0  0  0  0  0
    2.1974   -0.9539    0.0000 C   0  0  0  0  0  0  0  0  0  0  0  0
    2.9119   -1.3664    0.0000 C   0  0  0  0  0  0  0  0  0  0  0  0
    3.6263   -0.9539    0.0000 C   0  0  0  0  0  0  0  0  0  0  0  0
    4.3408   -1.3664    0.0000 C   0  0  0  0  0  0  0  0  0  0  0  0
    4.3408   -2.1914    0.0000 C   0  0  0  0  0  0  0  0  0  0  0  0
    3.6263   -2.6039    0.0000 C   0  0  0  0  0  0  0  0  0  0  0  0
    2.9119   -2.1914    0.0000 C   0  0  0  0  0  0  0  0  0  0  0  0
    6.5801    0.0000    0.0000 Br  0  0  0  0  0  0  0  0  0  0  0  0
  7  8  1  0  0  0  0
 15 16  1  0  0  0  0
  1  2  1  0  0  0  0
 16 17  1  0  0  0  0
  1  6  1  0  0  0  0
 14 18  1  0  0  0  0
  2  3  1  0  0  0  0
 14 19  1  0  0  0  0
  3  4  1  0  0  0  0
 19 20  1  0  0  0  0
  8  9  1  0  0  0  0
  9 10  2  0  0  0  0
 10 11  1  0  0  0  0
 11  7  2  0  0  0  0
  4  5  1  0  0  0  0
  9 12  1  0  0  0  0
 20 21  2  0  0  0  0
 21 22  1  0  0  0  0
  5  6  1  0  0  0  0
 22 23  2  0  0  0  0
 12 13  1  0  0  0  0
 23 24  1  0  0  0  0
 13 14  1  0  0  0  0
 24 25  2  0  0  0  0
 25 20  1  0  0  0  0
  2  7  1  0  0  0  0
  5 15  1  0  0  0  0
M  END