
          02060813472D 1   1.00000     0.00000     0

 84 89  0     1  0            999 V2000
    5.0381   -4.6115    0.0000 C   0  0  0  0  0  0           0  0  0
    4.3232   -4.2006    0.0000 S   0  0  0  0  0  0           0  0  0
    3.6040   -4.6028    0.0000 S   0  0  0  0  0  0           0  0  0
    2.8930   -4.1857    0.0000 C   0  0  0  0  0  0           0  0  0
    2.9009   -3.3572    0.0000 C   0  0  0  0  0  0           0  0  0
    2.1872   -2.9358    0.0000 C   0  0  0  0  0  0           0  0  0
    2.1961   -2.1113    0.0000 N   0  0  0  0  0  0           0  0  0
    1.4678   -3.3422    0.0000 O   0  0  0  0  0  0           0  0  0
    1.4855   -1.6922    0.0000 C   0  0  2  0  0  0           0  0  0
    1.4911   -0.8677    0.0000 C   0  0  0  0  0  0           0  0  0
    0.7661   -2.0972    0.0000 C   0  0  0  0  0  0           0  0  0
    0.0564   -1.6761    0.0000 C   0  0  0  0  0  0           0  0  0
    0.0626   -0.8526    0.0000 C   0  0  0  0  0  0           0  0  0
   -0.6477   -0.4286    0.0000 C   0  0  0  0  0  0           0  0  0
   -1.3678   -0.8355    0.0000 C   0  0  0  0  0  0           0  0  0
   -1.3734   -1.6741    0.0000 C   0  0  0  0  0  0           0  0  0
   -0.6616   -2.0891    0.0000 C   0  0  0  0  0  0           0  0  0
    2.2137   -0.4656    0.0000 N   0  0  0  0  0  0           0  0  0
    0.7774   -0.4505    0.0000 O   0  0  0  0  0  0           0  0  0
    2.8961   -0.4702    0.0000 C   0  0  2  0  0  0           0  0  0
    3.6364   -0.4741    0.0000 C   0  0  0  0  0  0           0  0  0
    4.3502   -0.8946    0.0000 N   0  0  0  0  0  0           0  0  0
    3.6485    0.3532    0.0000 O   0  0  0  0  0  0           0  0  0
    5.0727   -0.4841    0.0000 C   0  0  2  0  0  0           0  0  0
    5.7865   -0.9054    0.0000 C   0  0  0  0  0  0           0  0  0
    5.0827    0.3444    0.0000 C   0  0  0  0  0  0           0  0  0
    5.8020    0.7508    0.0000 C   0  0  0  0  0  0           0  0  0
    5.8076    1.5753    0.0000 C   0  0  0  0  0  0           0  0  0
    6.5270    1.9825    0.0000 N   0  0  0  0  0  0           0  0  0
    5.0939    1.9925    0.0000 O   0  0  0  0  0  0           0  0  0
    6.5058   -0.4990    0.0000 O   0  0  0  0  0  0           0  0  0
    5.7808   -1.7299    0.0000 N   0  0  0  0  0  0           0  0  0
    6.4944   -2.1511    0.0000 C   0  0  2  0  0  0           0  0  0
    6.4825   -2.9756    0.0000 C   0  0  0  0  0  0           0  0  0
    7.2036   -1.7439    0.0000 C   0  0  0  0  0  0           0  0  0
    7.9247   -2.1692    0.0000 C   0  0  0  0  0  0           0  0  0
    8.6399   -1.7547    0.0000 N   0  0  0  0  0  0           0  0  0
    7.9149   -2.9938    0.0000 O   0  0  0  0  0  0           0  0  0
    5.7632   -3.3799    0.0000 N   0  0  0  0  0  0           0  0  0
    7.1923   -3.3904    0.0000 O   0  0  0  0  0  0           0  0  0
    5.7542   -4.2105    0.0000 C   0  0  2  0  0  0           0  0  0
    6.4680   -4.6255    0.0000 C   0  0  0  0  0  0           0  0  0
    7.1865   -4.2191    0.0000 O   0  0  0  0  0  0           0  0  0
    2.9156   -1.2031    0.0000 C   0  0  2  0  0  0           0  0  0
    2.8958    0.3548    0.0000 H   0  0  0  0  0  0           0  0  0
    3.5643   -1.6015    0.0000 C   0  0  0  0  0  0           0  0  0
    3.5514   -2.5030    0.0000 C   0  0  0  0  0  0           0  0  0
    2.2121   -1.6003    0.0000 C   0  0  0  0  0  0           0  0  0
    6.4597   -5.4504    0.0000 N   0  0  3  0  0  0           0  0  0
    5.7466   -5.8550    0.0000 C   0  0  0  0  0  0           0  0  0
    7.1599   -6.6936    0.0000 C   0  0  0  0  0  0           0  0  0
    7.1747   -5.8692    0.0000 C   0  0  2  0  0  0           0  0  0
    7.8961   -5.4596    0.0000 C   0  0  0  0  0  0           0  0  0
    8.6064   -5.8770    0.0000 N   0  0  0  0  0  0           0  0  0
    7.9040   -4.6347    0.0000 O   0  0  0  0  0  0           0  0  0
    9.3182   -5.4729    0.0000 C   0  0  2  0  0  0           0  0  0
   10.0348   -5.8881    0.0000 C   0  0  0  0  0  0           0  0  0
    9.3261   -4.6479    0.0000 C   0  0  0  0  0  0           0  0  0
   10.0269   -6.7130    0.0000 O   0  0  0  0  0  0           0  0  0
    6.4415   -7.0984    0.0000 C   0  0  0  0  0  0           0  0  0
    5.7359   -6.6746    0.0000 C   0  0  0  0  0  0           0  0  0
    5.0192   -7.0765    0.0000 C   0  0  0  0  0  0           0  0  0
    5.0051   -7.9036    0.0000 C   0  0  0  0  0  0           0  0  0
    5.7174   -8.3233    0.0000 C   0  0  0  0  0  0           0  0  0
    6.4338   -7.9159    0.0000 C   0  0  0  0  0  0           0  0  0
   -2.7953   -0.8377    0.0000 C   0  0  0  0  0  0           0  0  0
   -3.5103   -0.4244    0.0000 C   0  0  0  0  0  0           0  0  0
    9.7320   -3.9274    0.0000 C   0  0  3  0  0  0           0  0  0
   10.5569   -3.9228    0.0000 C   0  0  0  0  0  0           0  0  0
    9.3134   -3.2191    0.0000 C   0  0  0  0  0  0           0  0  0
   10.7523   -5.4818    0.0000 N   0  0  3  0  0  0           0  0  0
   11.4586   -5.8994    0.0000 C   0  0  2  0  0  0           0  0  0
   12.1775   -5.4948    0.0000 C   0  0  0  0  0  0           0  0  0
   10.7502   -4.6559    0.0000 C   0  0  0  0  0  0           0  0  0
   11.4511   -6.7244    0.0000 C   0  0  0  0  0  0           0  0  0
   10.7347   -7.1317    0.0000 O   0  0  0  0  0  0           0  0  0
   12.1663   -7.1419    0.0000 N   0  0  0  0  0  0           0  0  0
   11.4730   -4.2518    0.0000 C   0  0  0  0  0  0           0  0  0
   12.1810   -4.6756    0.0000 C   0  0  0  0  0  0           0  0  0
   12.8954   -4.2717    0.0000 C   0  0  0  0  0  0           0  0  0
   12.9088   -3.4463    0.0000 C   0  0  0  0  0  0           0  0  0
   12.1961   -3.0267    0.0000 C   0  0  0  0  0  0           0  0  0
   11.4821   -3.4278    0.0000 C   0  0  0  0  0  0           0  0  0
   -2.0822   -0.4228    0.0000 O   0  0  0  0  0  0           0  0  0
 41  1  1  0     0  0
  1  2  1  0     0  0
  2  3  1  0     0  0
  3  4  1  0     0  0
  4  5  1  0     0  0
  5  6  1  0     0  0
  6  7  1  0     0  0
  6  8  2  0     0  0
  7  9  1  0     0  0
  9 10  1  0     0  0
  9 11  1  1     0  0
 11 12  1  0     0  0
 12 13  2  0     0  0
 13 14  1  0     0  0
 14 15  2  0     0  0
 15 16  1  0     0  0
 16 17  2  0     0  0
 17 12  1  0     0  0
 10 18  1  0     0  0
 10 19  2  0     0  0
 18 20  1  0     0  0
 20 21  1  0     0  0
 21 22  1  0     0  0
 21 23  2  0     0  0
 22 24  1  0     0  0
 24 25  1  0     0  0
 24 26  1  1     0  0
 26 27  1  0     0  0
 27 28  1  0     0  0
 28 29  1  0     0  0
 28 30  2  0     0  0
 25 31  2  0     0  0
 25 32  1  0     0  0
 32 33  1  0     0  0
 33 34  1  0     0  0
 33 35  1  1     0  0
 35 36  1  0     0  0
 36 37  1  0     0  0
 36 38  2  0     0  0
 34 39  1  0     0  0
 34 40  2  0     0  0
 39 41  1  0     0  0
 41 42  1  6     0  0
 42 43  2  0     0  0
 20 44  1  0     0  0
 20 45  1  1     0  0
 44 46  1  0     0  0
 46 47  1  0     0  0
 44 48  1  6     0  0
 42 49  1  0     0  0
 49 50  1  0     0  0
 49 52  1  0     0  0
 50 61  1  0     0  0
 60 51  1  0     0  0
 51 52  1  0     0  0
 52 53  1  1     0  0
 53 54  1  0     0  0
 53 55  2  0     0  0
 54 56  1  0     0  0
 56 57  1  0     0  0
 56 58  1  1     0  0
 57 59  2  0     0  0
 60 61  2  0     0  0
 61 62  1  0     0  0
 62 63  2  0     0  0
 63 64  1  0     0  0
 64 65  2  0     0  0
 65 60  1  0     0  0
 66 67  1  0     0  0
 58 68  1  0     0  0
 68 69  1  0     0  0
 68 70  1  0     0  0
 57 71  1  0     0  0
 71 72  1  0     0  0
 71 74  1  0     0  0
 72 73  1  0     0  0
 73 79  1  0     0  0
 78 74  1  0     0  0
 72 75  1  6     0  0
 75 76  2  0     0  0
 75 77  1  0     0  0
 78 79  2  0     0  0
 79 80  1  0     0  0
 80 81  2  0     0  0
 81 82  1  0     0  0
 82 83  2  0     0  0
 83 78  1  0     0  0
 15 84  1  0     0  0
 84 66  1  0     0  0
M  END