
          11280714452D 1   1.00000     0.00000     0

 34 38  0     0  0            999 V2000
    5.9792    1.3333    0.0000 N   0  0  0  0  0  0           0  0  0
    5.5750    0.0625    0.0000 C   0  0  0  0  0  0           0  0  0
    5.1542    1.3250    0.0000 N   0  0  0  0  0  0           0  0  0
    6.2375    0.5458    0.0000 N   0  0  0  0  0  0           0  0  0
    4.8667   -2.0042    0.0000 C   0  0  0  0  0  0           0  0  0
    4.9042    0.5458    0.0000 N   0  0  0  0  0  0           0  0  0
    4.8667   -1.1792    0.0000 C   0  0  0  0  0  0           0  0  0
   -2.2708   -2.0042    0.0000 N   0  0  0  0  0  0           0  0  0
    5.5792   -0.7625    0.0000 C   0  0  0  0  0  0           0  0  0
    4.1500   -2.4167    0.0000 C   0  0  0  0  0  0           0  0  0
    3.4375   -2.0042    0.0000 C   0  0  0  0  0  0           0  0  0
   -2.9833   -2.4167    0.0000 C   0  0  0  0  0  0           0  0  0
    5.5792   -2.4167    0.0000 C   0  0  0  0  0  0           0  0  0
    2.7167   -2.4167    0.0000 C   0  0  0  0  0  0           0  0  0
    6.2917   -1.1750    0.0000 C   0  0  0  0  0  0           0  0  0
   -1.5583   -2.4167    0.0000 C   0  0  0  0  0  0           0  0  0
    4.1500   -3.2417    0.0000 O   0  0  0  0  0  0           0  0  0
    6.2917   -2.0042    0.0000 C   0  0  0  0  0  0           0  0  0
   -2.9833   -3.2417    0.0000 C   0  0  0  0  0  0           0  0  0
   -2.2625   -3.6542    0.0000 C   0  0  0  0  0  0           0  0  0
   -0.1250   -2.4167    0.0000 O   0  0  0  0  0  0           0  0  0
    2.0042   -2.0042    0.0000 C   0  0  0  0  0  0           0  0  0
    0.5875   -2.0042    0.0000 C   0  0  0  0  0  0           0  0  0
    1.3000   -2.4125    0.0000 C   0  0  0  0  0  0           0  0  0
   -0.8458   -2.0042    0.0000 C   0  0  0  0  0  0           0  0  0
   -1.5500   -3.2417    0.0000 C   0  0  0  0  0  0           0  0  0
    5.5792   -3.2417    0.0000 O   0  0  0  0  0  0           0  0  0
    1.3000   -0.7625    0.0000 C   0  0  0  0  0  0           0  0  0
   -3.6958   -2.0125    0.0000 C   0  0  0  0  0  0           0  0  0
    2.0042   -1.1750    0.0000 C   0  0  0  0  0  0           0  0  0
    0.5875   -1.1792    0.0000 C   0  0  0  0  0  0           0  0  0
   -3.6875   -3.6542    0.0000 C   0  0  0  0  0  0           0  0  0
   -4.4083   -2.4250    0.0000 C   0  0  0  0  0  0           0  0  0
   -4.4083   -3.2500    0.0000 C   0  0  0  0  0  0           0  0  0
  2  4  1  0     0  0
  3  1  1  0     0  0
  4  1  2  0     0  0
  5  7  2  0     0  0
  6  3  1  0     0  0
  7  9  1  0     0  0
  8 16  2  0     0  0
  9  2  1  0     0  0
 10  5  1  0     0  0
 11 10  1  0     0  0
 12  8  1  0     0  0
 13 18  2  0     0  0
 14 11  2  0     0  0
 15  9  2  0     0  0
 16 25  1  0     0  0
 17 10  2  0     0  0
 18 15  1  0     0  0
 19 20  1  0     0  0
 20 26  2  0     0  0
 21 23  1  0     0  0
 22 14  1  0     0  0
 23 24  1  0     0  0
 24 22  2  0     0  0
 25 21  1  0     0  0
 26 16  1  0     0  0
 27 13  1  0     0  0
 28 30  2  0     0  0
 29 12  2  0     0  0
 30 22  1  0     0  0
 31 28  1  0     0  0
 32 19  2  0     0  0
 33 29  1  0     0  0
 34 32  1  0     0  0
  2  6  2  0     0  0
 13  5  1  0     0  0
 31 23  2  0     0  0
 12 19  1  0     0  0
 34 33  2  0     0  0
M  END