
          11280715452D 1   1.00000     0.00000     0

 18 20  0     0  0            999 V2000
   12.1001   -6.8396    0.0000 N   0  0  0  0  0  0           0  0  0
   12.5659   -6.1604    0.0000 C   0  0  0  0  0  0           0  0  0
   12.0612   -5.5066    0.0000 C   0  0  0  0  0  0           0  0  0
   11.3098   -6.6083    0.0000 C   0  0  0  0  0  0           0  0  0
   11.2838   -5.7837    0.0000 C   0  0  0  0  0  0           0  0  0
   10.4916   -5.5535    0.0000 C   0  0  0  0  0  0           0  0  0
   10.0277   -6.2359    0.0000 C   0  0  0  0  0  0           0  0  0
   10.5335   -6.8877    0.0000 S   0  0  0  0  0  0           0  0  0
   13.3891   -6.1373    0.0000 C   0  0  0  0  0  0           0  0  0
   13.8207   -6.8386    0.0000 O   0  0  0  0  0  0           0  0  0
   13.7806   -5.4128    0.0000 N   0  0  3  0  0  0           0  0  0
   14.6027   -5.3937    0.0000 C   0  0  0  0  0  0           0  0  0
   14.9943   -4.6734    0.0000 C   0  0  0  0  0  0           0  0  0
   14.5661   -3.9695    0.0000 N   0  0  3  0  0  0           0  0  0
   13.7419   -3.9907    0.0000 C   0  0  0  0  0  0           0  0  0
   13.3459   -4.7157    0.0000 C   0  0  0  0  0  0           0  0  0
   14.9603   -3.2466    0.0000 C   0  0  0  0  0  0           0  0  0
    9.2046   -6.2618    0.0000 Cl  0  0  0  0  0  0           0  0  0
  4  5  2  0     0  0
  2  9  1  0     0  0
  4  1  1  0     0  0
  9 10  2  0     0  0
  9 11  1  0     0  0
 11 12  1  0     0  0
  1  2  1  0     0  0
  2  3  2  0     0  0
  3  5  1  0     0  0
  5  6  1  0     0  0
  6  7  2  0     0  0
 11 16  1  0     0  0
 12 13  1  0     0  0
 13 14  1  0     0  0
 14 15  1  0     0  0
 15 16  1  0     0  0
  7  8  1  0     0  0
 14 17  1  0     0  0
  8  4  1  0     0  0
  7 18  1  0     0  0
M  END