
          11280715302D 1   1.00000     0.00000     0

 20 22  0     0  0            999 V2000
    2.6667   -3.5750    0.0000 C   0  0  0  0  0  0           0  0  0
    2.6667   -2.9750    0.0000 C   0  0  0  0  0  0           0  0  0
    1.6292   -2.9792    0.0000 C   0  0  0  0  0  0           0  0  0
    2.1542   -3.8750    0.0000 C   0  0  0  0  0  0           0  0  0
    1.6375   -3.5792    0.0000 C   0  0  0  0  0  0           0  0  0
    2.1500   -2.6792    0.0000 C   0  0  0  0  0  0           0  0  0
    3.1792   -3.8667    0.0000 O   0  0  0  0  0  0           0  0  0
    3.1792   -2.6750    0.0000 C   0  0  0  0  0  0           0  0  0
    3.7042   -3.5667    0.0000 C   0  0  0  0  0  0           0  0  0
    3.7000   -2.9667    0.0000 C   0  0  0  0  0  0           0  0  0
    1.0667   -3.7750    0.0000 O   0  0  0  0  0  0           0  0  0
    1.0625   -2.8000    0.0000 C   0  0  0  0  0  0           0  0  0
    0.7125   -3.2875    0.0000 C   0  0  0  0  0  0           0  0  0
    4.2167   -3.8667    0.0000 O   0  0  0  0  0  0           0  0  0
    2.1667   -4.4750    0.0000 O   0  0  0  0  0  0           0  0  0
    2.1417   -2.0792    0.0000 O   0  0  0  0  0  0           0  0  0
    1.6500   -4.7792    0.0000 C   0  0  0  0  0  0           0  0  0
    2.6625   -1.7750    0.0000 C   0  0  0  0  0  0           0  0  0
    2.6542   -1.1750    0.0000 C   0  0  0  0  0  0           0  0  0
    1.6542   -5.3792    0.0000 C   0  0  0  0  0  0           0  0  0
  2  1  2  0     0  0
  3  5  1  0     0  0
  4  1  1  0     0  0
  5  4  2  0     0  0
  6  2  1  0     0  0
  7  1  1  0     0  0
  8  2  1  0     0  0
  9  7  1  0     0  0
 10  9  1  0     0  0
 11  5  1  0     0  0
 12  3  1  0     0  0
 13 11  1  0     0  0
 14  9  2  0     0  0
 15  4  1  0     0  0
 16  6  1  0     0  0
 17 15  1  0     0  0
 18 16  1  0     0  0
 19 18  1  0     0  0
 20 17  1  0     0  0
  6  3  2  0     0  0
 10  8  2  0     0  0
 12 13  2  0     0  0
M  END