
  Mrv0541 04051115152D          

 20 22  0  0  0  0            999 V2000
    3.1044   -0.3599    0.0000 C   0  0  0  0  0  0  0  0  0  0  0  0
    1.6755   -0.3599    0.0000 C   0  0  0  0  0  0  0  0  0  0  0  0
    1.6755   -1.1849    0.0000 C   0  0  0  0  0  0  0  0  0  0  0  0
    2.3900   -1.5974    0.0000 C   0  0  0  0  0  0  0  0  0  0  0  0
   -3.6734    0.5255    0.0000 C   0  0  0  0  0  0  0  0  0  0  0  0
   -2.9197    0.8610    0.0000 S   0  0  0  0  0  0  0  0  0  0  0  0
   -2.2523    0.3761    0.0000 C   0  0  0  0  0  0  0  0  0  0  0  0
   -1.4986    0.7117    0.0000 C   0  0  1  0  0  0  0  0  0  0  0  0
   -0.7841    0.2992    0.0000 C   0  0  0  0  0  0  0  0  0  0  0  0
   -0.1710    0.8512    0.0000 N   0  0  0  0  0  0  0  0  0  0  0  0
    0.6359    0.6797    0.0000 C   0  0  0  0  0  0  0  0  0  0  0  0
    0.8909   -0.1050    0.0000 C   0  0  0  0  0  0  0  0  0  0  0  0
    0.4059   -0.7724    0.0000 C   0  0  0  0  0  0  0  0  0  0  0  0
    0.8909   -1.4398    0.0000 N   0  0  0  0  0  0  0  0  0  0  0  0
    2.3900   -2.4224    0.0000 N   0  0  0  0  0  0  0  0  0  0  0  0
    3.1044   -1.1849    0.0000 N   0  0  0  0  0  0  0  0  0  0  0  0
    2.3900    0.0526    0.0000 N   0  0  0  0  0  0  0  0  0  0  0  0
   -0.5066    1.6049    0.0000 C   0  0  0  0  0  0  0  0  0  0  0  0
   -1.3271    1.5186    0.0000 C   0  0  2  0  0  0  0  0  0  0  0  0
   -1.8791    2.1317    0.0000 O   0  0  0  0  0  0  0  0  0  0  0  0
  1 16  2  0  0  0  0
  1 17  1  0  0  0  0
  2  3  1  0  0  0  0
  2 12  1  0  0  0  0
  2 17  2  0  0  0  0
  3  4  2  0  0  0  0
  3 14  1  0  0  0  0
  4 15  1  0  0  0  0
  4 16  1  0  0  0  0
  5  6  1  0  0  0  0
  7  6  1  0  0  0  0
  8  7  1  6  0  0  0
  9  8  1  0  0  0  0
 19  8  1  0  0  0  0
  9 10  1  0  0  0  0
 11 10  1  0  0  0  0
 18 10  1  0  0  0  0
 11 12  1  0  0  0  0
 13 12  2  0  0  0  0
 13 14  1  0  0  0  0
 18 19  1  0  0  0  0
 19 20  1  1  0  0  0
M  END