
  CDK    12/20/10,15:21

 32 36  0  0  0  0  0  0  0  0999 V2000
    4.5819    1.9042    0.0000 C   0  0  0  0  0  0  0  0  0  0  0  0
    4.5807    1.0768    0.0000 C   0  0  0  0  0  0  0  0  0  0  0  0
    5.2956    0.6640    0.0000 C   0  0  0  0  0  0  0  0  0  0  0  0
    6.0120    1.0773    0.0000 C   0  0  0  0  0  0  0  0  0  0  0  0
    6.0091    1.9078    0.0000 N   0  0  0  0  0  0  0  0  0  0  0  0
    5.2938    2.3170    0.0000 C   0  0  0  0  0  0  0  0  0  0  0  0
    3.8659    0.6649    0.0000 C   0  0  0  0  0  0  0  0  0  0  0  0
    3.1518    1.0780    0.0000 N   0  0  0  0  0  0  0  0  0  0  0  0
    3.1564    1.9072    0.0000 C   0  0  0  0  0  0  0  0  0  0  0  0
    2.4464    2.3201    0.0000 C   0  0  0  0  0  0  0  0  0  0  0  0
    1.7292    1.9117    0.0000 C   0  0  0  0  0  0  0  0  0  0  0  0
    1.7265    1.0858    0.0000 C   0  0  0  0  0  0  0  0  0  0  0  0
    2.4411    0.6682    0.0000 C   0  0  0  0  0  0  0  0  0  0  0  0
    1.0166    2.3275    0.0000 C   0  0  0  0  0  0  0  0  0  0  0  0
    1.0204    3.1525    0.0000 O   0  0  0  0  0  0  0  0  0  0  0  0
    0.3002    1.9183    0.0000 N   0  0  0  0  0  0  0  0  0  0  0  0
   -0.4158    2.3334    0.0000 C   0  0  0  0  0  0  0  0  0  0  0  0
   -1.1300    1.9277    0.0000 C   0  0  0  0  0  0  0  0  0  0  0  0
   -1.1381    1.1023    0.0000 C   0  0  0  0  0  0  0  0  0  0  0  0
   -0.4257    0.6844    0.0000 C   0  0  0  0  0  0  0  0  0  0  0  0
    0.2948    1.0917    0.0000 C   0  0  0  0  0  0  0  0  0  0  0  0
   -1.8560    0.6958    0.0000 N   0  0  0  0  0  0  0  0  0  0  0  0
   -2.6086    1.0385    0.0000 C   0  0  0  0  0  0  0  0  0  0  0  0
   -3.1657    0.4300    0.0000 N   0  0  0  0  0  0  0  0  0  0  0  0
   -1.9509   -0.1230    0.0000 C   0  0  0  0  0  0  0  0  0  0  0  0
   -2.7565   -0.2898    0.0000 C   0  0  0  0  0  0  0  0  0  0  0  0
   -3.0133   -1.0694    0.0000 C   0  0  0  0  0  0  0  0  0  0  0  0
   -2.4655   -1.6829    0.0000 C   0  0  0  0  0  0  0  0  0  0  0  0
   -1.6577   -1.5116    0.0000 C   0  0  0  0  0  0  0  0  0  0  0  0
   -1.4046   -0.7322    0.0000 C   0  0  0  0  0  0  0  0  0  0  0  0
   -2.7734    1.8468    0.0000 O   0  0  0  0  0  0  0  0  0  0  0  0
   -3.9855    0.5224    0.0000 C   0  0  0  0  0  0  0  0  0  0  0  0
  3  4  2  0  0  0  0 
 14 16  1  0  0  0  0 
 16 17  1  0  0  0  0 
  7  8  1  0  0  0  0 
  8  9  1  0  0  0  0 
  4  5  1  0  0  0  0 
  2  3  1  0  0  0  0 
 16 21  1  0  0  0  0 
 17 18  1  0  0  0  0 
 18 19  1  0  0  0  0 
 19 20  1  0  0  0  0 
 20 21  1  0  0  0  0 
  5  6  2  0  0  0  0 
 19 22  1  0  0  0  0 
 22 23  1  0  0  0  0 
  6  1  1  0  0  0  0 
  8 13  1  0  0  0  0 
 23 24  1  0  0  0  0 
 24 26  1  0  0  0  0 
 25 22  1  0  0  0  0 
  9 10  1  0  0  0  0 
 10 11  1  0  0  0  0 
 25 26  2  0  0  0  0 
 11 12  1  0  0  0  0 
 26 27  1  0  0  0  0 
 12 13  1  0  0  0  0 
 27 28  2  0  0  0  0 
  1  2  2  0  0  0  0 
 28 29  1  0  0  0  0 
 11 14  1  0  0  0  0 
 29 30  2  0  0  0  0 
 30 25  1  0  0  0  0 
  2  7  1  0  0  0  0 
 23 31  2  0  0  0  0 
 14 15  2  0  0  0  0 
 24 32  1  0  0  0  0 
M  END