
  SciTegic02271515152D

 43 46  0  0  0  0            999 V2000
    7.4771  -28.3169    0.0000 C   0  0
    7.4760  -29.1364    0.0000 C   0  0
    8.1840  -29.5454    0.0000 C   0  0
    8.8937  -29.1359    0.0000 C   0  0
    8.8909  -28.3133    0.0000 C   0  0
    8.1822  -27.9080    0.0000 C   0  0
    6.7693  -27.9085    0.0000 C   0  0
    6.0617  -28.3172    0.0000 N   0  0
    9.5980  -29.5415    0.0000 C   0  0
    9.6848  -30.3541    0.0000 C   0  0
   10.4844  -30.5227    0.0000 N   0  0
   10.8919  -29.8143    0.0000 C   0  0
   10.3440  -29.2080    0.0000 S   0  0
    5.3539  -27.9088    0.0000 C   0  0
    4.6463  -28.3176    0.0000 O   0  0
    5.3537  -27.0916    0.0000 C   0  0  2  0  0  0
    6.0201  -26.6122    0.0000 C   0  0
    5.7674  -25.8350    0.0000 C   0  0  2  0  0  0
    4.9501  -25.8352    0.0000 C   0  0
    4.6979  -26.6125    0.0000 N   0  0
    3.9204  -26.8641    0.0000 C   0  0
    3.7496  -27.6633    0.0000 O   0  0
    6.2476  -25.1738    0.0000 O   0  0
    9.0783  -30.9018    0.0000 C   0  0
    3.3138  -26.3167    0.0000 C   0  0  2  0  0  0
    3.4846  -25.5175    0.0000 C   0  0
    2.5363  -26.5683    0.0000 N   0  0
    4.2621  -25.2659    0.0000 C   0  0
    2.8779  -24.9700    0.0000 C   0  0
    3.6939  -24.7221    0.0000 C   0  0
    1.9296  -26.0208    0.0000 C   0  0
    1.1521  -26.2725    0.0000 C   0  0  1  0  0  0
    2.1004  -25.2217    0.0000 O   0  0
    0.5455  -25.7250    0.0000 N   0  0
    0.9813  -27.0716    0.0000 C   0  0
    0.7163  -24.9258    0.0000 C   0  0
    0.1096  -24.3783    0.0000 C   0  0
    1.4937  -24.6742    0.0000 O   0  0
    0.2033  -27.3215    0.0000 C   0  0
    0.0324  -28.1198    0.0000 C   0  0
    0.6394  -28.6682    0.0000 C   0  0
    1.4201  -28.4128    0.0000 C   0  0
    1.5874  -27.6151    0.0000 C   0  0
  1  2  2  0
  2  3  1  0
  3  4  2  0
  4  5  1  0
  5  6  2  0
  6  1  1  0
  1  7  1  0
  7  8  1  0
  9 10  2  0
 10 11  1  0
 11 12  2  0
 12 13  1  0
 13  9  1  0
  4  9  1  0
  8 14  1  0
 14 15  2  0
 16 14  1  1
 16 17  1  0
 17 18  1  0
 18 19  1  0
 19 20  1  0
 20 16  1  0
 20 21  1  0
 21 22  2  0
 18 23  1  6
 10 24  1  0
 21 25  1  0
 25 26  1  1
 25 27  1  0
 26 28  1  0
 26 29  1  0
 26 30  1  0
 27 31  1  0
 31 32  1  0
 31 33  2  0
 32 34  1  0
 32 35  1  6
 34 36  1  0
 36 37  1  0
 36 38  2  0
 35 39  2  0
 39 40  1  0
 40 41  2  0
 41 42  1  0
 42 43  2  0
 43 35  1  0
M  END