
  SciTegic          2D

 27 29  0  0  0  0            999 V2000
    5.0013   -1.2375    0.0000 C   0  0
    5.7158   -1.6500    0.0000 O   0  0
    5.7158   -2.4750    0.0000 C   0  0
    6.4302   -2.8875    0.0000 C   0  0
    6.4302   -3.7125    0.0000 C   0  0
    5.7158   -4.1250    0.0000 C   0  0
    5.7158   -4.9500    0.0000 C   0  0
    6.4302   -5.3625    0.0000 O   0  0
    6.4302   -6.1875    0.0000 C   0  0
    7.1447   -6.6000    0.0000 C   0  0
    7.1447   -7.4250    0.0000 C   0  0
    6.4302   -7.8375    0.0000 C   0  0
    6.4302   -8.6625    0.0000 C   0  0
    5.7158   -9.0750    0.0000 C   0  0
    5.7158   -9.9000    0.0000 C   0  0
    5.0013  -10.3125    0.0000 N   0  0
    4.2868   -9.9000    0.0000 C   0  0
    3.5724  -10.3125    0.0000 N   0  0
    4.2868   -9.0750    0.0000 N   0  0
    5.0013   -8.6625    0.0000 C   0  0
    5.0013   -7.8375    0.0000 N   0  0
    5.7158   -7.4250    0.0000 C   0  0
    5.7158   -6.6000    0.0000 C   0  0
    5.0013   -6.1875    0.0000 O   0  0
    5.0013   -5.3625    0.0000 C   0  0
    5.0013   -3.7125    0.0000 C   0  0
    5.0013   -2.8875    0.0000 C   0  0
  1  2  1  0
  2  3  1  0
  3  4  2  0
  4  5  1  0
  5  6  2  0
  6  7  1  0
  7  8  1  0
  8  9  1  0
  9 10  2  0
 10 11  1  0
 11 12  2  0
 12 13  1  0
 13 14  1  0
 14 15  2  0
 15 16  1  0
 16 17  2  0
 17 18  1  0
 17 19  1  0
 19 20  2  0
 14 20  1  0
 20 21  1  0
 12 22  1  0
 22 23  2  0
  9 23  1  0
 23 24  1  0
 24 25  1  0
  6 26  1  0
 26 27  2  0
  3 27  1  0
M  END