
  CDK    9/16/09,9:47

 40 43  0  0  0  0  0  0  0  0999 V2000
   17.3338  -17.6896    0.0000 N   0  0  0  0  0  0  0  0  0  0  0  0
   17.1172  -16.8928    0.0000 C   0  0  0  0  0  0  0  0  0  0  0  0
   16.2902  -16.8559    0.0000 C   0  0  0  0  0  0  0  0  0  0  0  0
   17.5033  -16.1575    0.0000 C   0  0  0  0  0  0  0  0  0  0  0  0
   18.3270  -16.1233    0.0000 C   0  0  0  0  0  0  0  0  0  0  0  0
   18.1593  -17.6588    0.0000 C   0  0  0  0  0  0  0  0  0  0  0  0
   18.5953  -18.3602    0.0000 C   0  0  0  0  0  0  0  0  0  0  0  0
   19.4272  -18.3322    0.0000 C   0  0  0  0  0  0  0  0  0  0  0  0
   19.8639  -19.0304    0.0000 C   0  0  0  0  0  0  0  0  0  0  0  0
   20.6895  -19.0002    0.0000 C   0  0  0  0  0  0  0  0  0  0  0  0
   21.1255  -19.6974    0.0000 C   0  0  0  0  0  0  0  0  0  0  0  0
   21.9541  -19.6728    0.0000 C   0  0  0  0  0  0  0  0  0  0  0  0
   22.3899  -20.3676    0.0000 O   0  0  0  0  0  0  0  0  0  0  0  0
   22.3412  -18.9414    0.0000 O   0  0  0  0  0  0  0  0  0  0  0  0
   19.8082  -17.6032    0.0000 O   0  0  0  0  0  0  0  0  0  0  0  0
   21.0726  -18.2671    0.0000 O   0  0  0  0  0  0  0  0  0  0  0  0
   15.8380  -16.1656    0.0000 C   0  0  0  0  0  0  0  0  0  0  0  0
   15.0173  -16.1570    0.0000 N   0  0  0  0  0  0  0  0  0  0  0  0
   16.2077  -15.4325    0.0000 O   0  0  0  0  0  0  0  0  0  0  0  0
   14.6144  -15.4407    0.0000 C   0  0  0  0  0  0  0  0  0  0  0  0
   13.7878  -15.4281    0.0000 C   0  0  0  0  0  0  0  0  0  0  0  0
   13.3911  -14.7065    0.0000 C   0  0  0  0  0  0  0  0  0  0  0  0
   12.5699  -14.6934    0.0000 C   0  0  0  0  0  0  0  0  0  0  0  0
   12.1471  -15.4036    0.0000 C   0  0  0  0  0  0  0  0  0  0  0  0
   12.5504  -16.1251    0.0000 C   0  0  0  0  0  0  0  0  0  0  0  0
   13.3738  -16.1328    0.0000 C   0  0  0  0  0  0  0  0  0  0  0  0
   15.0359  -14.7313    0.0000 C   0  0  0  0  0  0  0  0  0  0  0  0
   14.6309  -14.0135    0.0000 O   0  0  0  0  0  0  0  0  0  0  0  0
   16.6376  -18.1405    0.0000 C   0  0  0  0  0  0  0  0  0  0  0  0
   15.9980  -17.6194    0.0000 C   0  0  0  0  0  0  0  0  0  0  0  0
   15.2312  -17.9112    0.0000 C   0  0  0  0  0  0  0  0  0  0  0  0
   15.0976  -18.7247    0.0000 C   0  0  0  0  0  0  0  0  0  0  0  0
   15.7372  -19.2457    0.0000 C   0  0  0  0  0  0  0  0  0  0  0  0
   16.5104  -18.9533    0.0000 C   0  0  0  0  0  0  0  0  0  0  0  0
   11.3221  -15.3923    0.0000 C   0  0  0  0  0  0  0  0  0  0  0  0
   10.9228  -14.6699    0.0000 C   0  0  0  0  0  0  0  0  0  0  0  0
   10.0986  -14.6584    0.0000 C   0  0  0  0  0  0  0  0  0  0  0  0
    9.6756  -15.3677    0.0000 C   0  0  0  0  0  0  0  0  0  0  0  0
   10.0827  -16.0901    0.0000 C   0  0  0  0  0  0  0  0  0  0  0  0
   10.9056  -16.0982    0.0000 C   0  0  0  0  0  0  0  0  0  0  0  0
 17 19  2  0  0  0  0 
 18 20  1  0  0  0  0 
 29  1  1  0  0  0  0 
  1  2  1  0  0  0  0 
  2  3  2  0  0  0  0 
  3 30  1  0  0  0  0 
  2  4  1  0  0  0  0 
  4  5  1  0  0  0  0 
  1  6  1  0  0  0  0 
 20 21  1  0  0  0  0 
 21 22  2  0  0  0  0 
 22 23  1  0  0  0  0 
 23 24  2  0  0  0  0 
 24 25  1  0  0  0  0 
 25 26  2  0  0  0  0 
 26 21  1  0  0  0  0 
 20 27  1  1  0  0  0 
 27 28  1  0  0  0  0 
 29 30  2  0  0  0  0 
  6  7  1  0  0  0  0 
  7  8  1  0  0  0  0 
  8  9  1  0  0  0  0 
  9 10  1  0  0  0  0 
 10 11  1  0  0  0  0 
 11 12  1  0  0  0  0 
 29 34  1  0  0  0  0 
 30 31  1  0  0  0  0 
 31 32  1  0  0  0  0 
 32 33  1  0  0  0  0 
 33 34  1  0  0  0  0 
 12 13  1  0  0  0  0 
 24 35  1  0  0  0  0 
 12 14  2  0  0  0  0 
 35 36  2  0  0  0  0 
  8 15  1  1  0  0  0 
 36 37  1  0  0  0  0 
 10 16  1  1  0  0  0 
 37 38  2  0  0  0  0 
  3 17  1  0  0  0  0 
 38 39  1  0  0  0  0 
 17 18  1  0  0  0  0 
 39 40  2  0  0  0  0 
 40 35  1  0  0  0  0 
M  END