
  SciTegic05071317052D

 31 31  0  0  0  0            999 V2000
   11.7392  -20.3203    0.0000 C   0  0
   12.4070  -19.8359    0.0000 N   0  0
   12.1528  -19.0511    0.0000 C   0  0
   11.3277  -19.0504    0.0000 C   0  0
   11.0723  -19.8347    0.0000 S   0  0
   10.9117  -18.3381    0.0000 C   0  0
   10.0868  -18.3422    0.0000 C   0  0
    9.6707  -17.6297    0.0000 N   0  0
    8.8457  -17.6339    0.0000 C   0  0
   10.0797  -16.9132    0.0000 C   0  0
   11.7413  -21.1426    0.0000 N   0  0
   11.0246  -21.5532    0.0000 C   0  0
   11.0219  -22.3746    0.0000 C   0  0
   11.7342  -22.7916    0.0000 N   0  0
   12.4509  -22.3809    0.0000 C   0  0
   12.4553  -21.5534    0.0000 C   0  0
   11.7303  -23.6166    0.0000 C   0  0
   11.0139  -24.0258    0.0000 C   0  0
   11.0101  -24.8507    0.0000 C   0  0
    8.4297  -16.9214    0.0000 C   0  0
    8.4367  -18.3503    0.0000 O   0  0
    8.8419  -16.2059    0.0000 C   0  0
    8.4265  -15.4940    0.0000 C   0  0
    7.6006  -15.4975    0.0000 C   0  0
    7.1918  -16.2191    0.0000 C   0  0
    7.6095  -16.9281    0.0000 C   0  0
    7.1837  -14.7857    0.0000 N   0  3
    6.3583  -14.7884    0.0000 O   0  0
    7.5914  -14.0662    0.0000 O   0  5
    7.8396  -17.6710    0.0000 Br  0  0
    6.6884  -18.5036    0.0000 Br  0  0
  1  2  2  0
  2  3  1  0
  3  4  2  0
  4  5  1  0
  5  1  1  0
  4  6  1  0
  6  7  1  0
  7  8  1  0
  8  9  1  0
  8 10  1  0
 11 12  1  0
 11 16  1  0
 12 13  1  0
 13 14  1  0
 14 15  1  0
 15 16  1  0
  1 11  1  0
 14 17  1  0
 17 18  1  0
 18 19  1  0
  9 20  1  0
  9 21  2  0
 20 22  2  0
 22 23  1  0
 23 24  2  0
 24 25  1  0
 25 26  2  0
 26 20  1  0
 24 27  1  0
 27 28  2  0
 27 29  1  0
M  CHG  2  27   1  29  -1
M  END