
  SciTegic12231509382D

 20 22  0  0  0  0            999 V2000
    9.4448   -8.9905    0.0000 N   0  0
    8.6403   -9.1697    0.0000 C   0  0
    7.9943   -8.6571    0.0000 C   0  0
    8.6446   -7.2942    0.0000 N   0  0
    9.4448   -7.5066    0.0000 C   0  0
    9.8032   -8.2445    0.0000 C   0  0
    7.9943   -7.8318    0.0000 C   0  0
    7.2816   -9.0696    0.0000 C   0  0
    8.6403   -9.9950    0.0000 C   0  0
   10.0325   -6.9190    0.0000 O   0  0
    7.2816   -7.4149    0.0000 C   0  0
    6.5688   -8.6571    0.0000 C   0  0
   10.6285   -8.2445    0.0000 O   0  0
    6.5688   -7.8318    0.0000 C   0  0
    5.8519   -9.0696    0.0000 Cl  0  0
    9.3447  -10.4077    0.0000 C   0  0
    7.9277  -10.4077    0.0000 C   0  0
    7.9193  -11.2288    0.0000 C   0  0
    9.3447  -11.2329    0.0000 C   0  0
    8.6279  -11.6413    0.0000 C   0  0
  2  1  2  0
  3  2  1  0
  4  5  1  0
  5  6  1  0
  6  1  1  0
  7  3  1  0
  8  3  2  0
  9  2  1  0
 10  5  2  0
 11  7  2  0
 12  8  1  0
 13  6  1  0
 14 12  2  0
 15 12  1  0
 16  9  2  0
 17  9  1  0
 18 17  2  0
 19 16  1  0
 20 18  1  0
  4  7  1  0
 19 20  2  0
 14 11  1  0
M  END