
  SciTegic11201309402D

 44 49  0  0  1  0            999 V2000
   10.2630  -11.3693    0.0000 C   0  0
    8.8334  -11.3438    0.0000 N   0  0
    9.5562  -10.9435    0.0000 C   0  0  1  0  0  0
    9.5703  -10.1209    0.0000 C   0  0
    8.8635   -9.6952    0.0000 C   0  0
    8.1428  -10.0919    0.0000 C   0  0
    7.4362   -9.6661    0.0000 C   0  0
    7.4501   -8.8435    0.0000 C   0  0
    6.7434   -8.4177    0.0000 O   0  0
    8.1729   -8.4433    0.0000 C   0  0
    8.8796   -8.8690    0.0000 C   0  0
    9.6019   -8.4702    0.0000 C   0  0
    8.1263  -10.9186    0.0000 C   0  0
   10.9851  -10.9702    0.0000 N   0  0
   10.2476  -12.1942    0.0000 O   0  0
   11.6888  -11.3974    0.0000 C   0  0  1  0  0  0
   12.4087  -11.0018    0.0000 C   0  0
   10.9957  -10.1458    0.0000 C   0  0
   11.7218   -9.7486    0.0000 C   0  0
   12.4259  -10.1759    0.0000 C   0  0
   13.1459   -9.7799    0.0000 C   0  0
   13.1630   -8.9567    0.0000 C   0  0
   12.4542   -8.5313    0.0000 C   0  0
   11.7371   -8.9297    0.0000 C   0  0
   11.6710  -12.2223    0.0000 C   0  0
   10.9478  -12.6193    0.0000 O   0  0
   12.3765  -12.6501    0.0000 N   0  0
   13.0998  -12.2531    0.0000 C   0  0
   13.8052  -12.6810    0.0000 C   0  0
   13.8741  -13.4987    0.0000 N   0  0
   14.5664  -12.3573    0.0000 N   0  0
   15.1051  -12.9821    0.0000 C   0  0
   14.6746  -13.6851    0.0000 C   0  0
   15.0681  -14.4074    0.0000 C   0  0
   15.8921  -14.4278    0.0000 C   0  0
   16.3209  -13.7200    0.0000 C   0  0
   15.9249  -13.0007    0.0000 C   0  0
   14.7533  -11.5536    0.0000 C   0  0
   15.5427  -11.3137    0.0000 C   0  0
   16.1441  -11.8798    0.0000 C   0  0
   16.9329  -11.6404    0.0000 C   0  0
   17.1205  -10.8361    0.0000 C   0  0
   16.5131  -10.2713    0.0000 C   0  0
   15.7266  -10.5137    0.0000 C   0  0
 10 11  2  0
 21 22  2  0
  5 11  1  0
 22 23  1  0
 23 24  2  0
 24 19  1  0
 11 12  1  0
 16 25  1  1
  6 13  1  0
 25 26  2  0
  3  2  1  1
 25 27  1  0
  1  3  1  0
 27 28  1  0
  1 14  1  0
 28 29  1  0
 29 30  2  0
  3  4  1  0
  1 15  2  0
 30 33  1  0
 32 31  1  0
 31 29  1  0
 16 14  1  0
  4  5  1  0
 32 33  2  0
  5  6  2  0
 33 34  1  0
  6  7  1  0
 34 35  2  0
 14 18  1  0
 35 36  1  0
 16 17  1  0
 36 37  2  0
 37 32  1  0
 17 20  1  0
 31 38  1  0
 19 18  1  0
 38 39  1  0
  7  8  2  0
 39 40  2  0
  8  9  1  0
 40 41  1  0
 19 20  2  0
 41 42  2  0
  8 10  1  0
 42 43  1  0
 20 21  1  0
 43 44  2  0
 44 39  1  0
M  END