
  SciTegic10041313242D

 37 41  0  0  0  0            999 V2000
    7.5417   -3.2167    0.0000 N   0  0
    8.0375   -2.5417    0.0000 C   0  0
    7.5417   -1.8667    0.0000 C   0  0
    6.7542   -2.1292    0.0000 C   0  0
    6.7542   -2.9542    0.0000 C   0  0
    8.8625   -2.4625    0.0000 C   0  0
    7.7500   -4.0167    0.0000 C   0  0
    1.4559   -6.2605    0.0000 C   0  0
    2.1667   -5.8417    0.0000 C   0  0
    6.0292   -3.3667    0.0000 C   0  0
   10.0792   -3.1667    0.0000 C   0  0
    6.0292   -1.7167    0.0000 C   0  0
    9.2625   -3.1667    0.0000 C   0  0
   -0.6954   -6.6723    0.0000 N   0  0
   10.5125   -2.4625    0.0000 O   0  0
    7.8667   -1.1042    0.0000 C   0  0
    5.3292   -2.1292    0.0000 C   0  0
    7.1667   -4.5917    0.0000 C   0  0
    0.7388   -6.6686    0.0000 C   0  0
    5.3292   -2.9542    0.0000 C   0  0
    5.7292   -5.4167    0.0000 C   0  0
   10.5000   -3.8875    0.0000 O   0  0
    4.6042   -1.7167    0.0000 F   0  0
    9.2042   -1.7000    0.0000 C   0  0
    7.1667   -5.4167    0.0000 C   0  0
    6.4417   -4.1792    0.0000 C   0  0
    5.7417   -4.5917    0.0000 C   0  0
    6.4542   -5.8292    0.0000 C   0  0
    5.0167   -5.8292    0.0000 O   0  0
    2.8667   -5.4292    0.0000 C   0  0
    0.0154   -6.2534    0.0000 C   0  0
    8.7125   -1.0167    0.0000 C   0  0
   -0.6912   -7.4919    0.0000 C   0  0
    0.7280   -7.4875    0.0000 C   0  0
    4.3042   -5.4292    0.0000 C   0  0
    3.5917   -5.8417    0.0000 C   0  0
    0.0280   -7.9000    0.0000 C   0  0
  2  1  1  0
  3  2  2  0
  4  5  1  0
  5  1  1  0
  6  2  1  0
  7  1  1  0
  8  9  3  0
  9 30  1  0
 10  5  2  0
 11 13  1  0
 12  4  2  0
 13  6  1  0
 14 31  1  0
 15 11  2  0
 16  3  1  0
 17 20  2  0
 18  7  1  0
 19  8  1  0
 20 10  1  0
 21 27  2  0
 22 11  1  0
 23 17  1  0
 24  6  1  0
 25 18  1  0
 26 18  2  0
 27 26  1  0
 28 25  2  0
 29 21  1  0
 30 36  1  0
 31 19  2  0
 32 24  1  0
 33 37  1  0
 34 19  1  0
 35 29  1  0
 36 35  1  0
 37 34  2  0
  4  3  1  0
 21 28  1  0
 17 12  1  0
 32 16  1  0
 33 14  2  0
M  END