
          11280714492D 1   1.00000     0.00000     0

 24 25  0     0  0            999 V2000
    3.8292   -3.2125    0.0000 C   0  0  0  0  0  0           0  0  0
    4.5417   -2.8042    0.0000 C   0  0  3  0  0  0           0  0  0
    3.8292   -4.0375    0.0000 C   0  0  0  0  0  0           0  0  0
    5.2542   -3.2125    0.0000 N   0  0  0  0  0  0           0  0  0
    4.5417   -1.9792    0.0000 C   0  0  0  0  0  0           0  0  0
    5.2542   -4.0417    0.0000 C   0  0  0  0  0  0           0  0  0
    5.9750   -0.3375    0.0000 N   0  3  0  0  0  0           0  0  0
    4.5417   -4.4417    0.0000 N   0  0  0  0  0  0           0  0  0
    3.0042   -3.2125    0.0000 C   0  0  0  0  0  0           0  0  0
    5.2542   -1.5750    0.0000 C   0  0  0  0  0  0           0  0  0
    5.2542   -0.7500    0.0000 C   0  0  0  0  0  0           0  0  0
    3.8375   -1.5625    0.0000 C   0  0  0  0  0  0           0  0  0
    6.6917   -0.7500    0.0000 O   0  5  0  0  0  0           0  0  0
    5.9792    0.4958    0.0000 O   0  0  0  0  0  0           0  0  0
    2.5917   -2.4917    0.0000 O   0  0  0  0  0  0           0  0  0
    4.5417   -0.3292    0.0000 C   0  0  0  0  0  0           0  0  0
    5.9667   -4.4542    0.0000 S   0  0  0  0  0  0           0  0  0
    3.8375   -0.7500    0.0000 C   0  0  0  0  0  0           0  0  0
    3.1167   -1.9750    0.0000 S   0  0  0  0  0  0           0  0  0
    2.5875   -3.9250    0.0000 O   0  0  0  0  0  0           0  0  0
    3.1125   -4.4417    0.0000 C   0  0  0  0  0  0           0  0  0
    5.9667   -5.2792    0.0000 C   0  0  0  0  0  0           0  0  0
    2.4042   -1.5542    0.0000 C   0  0  0  0  0  0           0  0  0
    1.7625   -3.9167    0.0000 C   0  0  0  0  0  0           0  0  0
  2  1  1  0     0  0
  3  1  2  0     0  0
  4  2  1  0     0  0
  5  2  1  0     0  0
  6  8  2  0     0  0
  7 11  1  0     0  0
  8  3  1  0     0  0
  9  1  1  0     0  0
 10  5  2  0     0  0
 11 10  1  0     0  0
 12  5  1  0     0  0
 13  7  1  0     0  0
 14  7  2  0     0  0
 15  9  2  0     0  0
 16 18  1  0     0  0
 17  6  1  0     0  0
 18 12  2  0     0  0
 19 12  1  0     0  0
 20  9  1  0     0  0
 21  3  1  0     0  0
 22 17  1  0     0  0
 23 19  1  0     0  0
 24 20  1  0     0  0
  4  6  1  0     0  0
 16 11  2  0     0  0
M  CHG  2   7   1  13  -1
M  END