
  SciTegic04021211102D

 21 23  0  0  0  0            999 V2000
   14.5736   -0.5500    0.0000 N   0  0
   14.5724   -1.3773    0.0000 C   0  0
   15.2872   -1.7902    0.0000 N   0  0
   15.2854   -0.1372    0.0000 C   0  0
   16.0008   -0.5463    0.0000 C   0  0
   16.0011   -1.3728    0.0000 C   0  0
   16.7872   -1.6279    0.0000 N   0  0
   17.2728   -0.9591    0.0000 C   0  0
   16.7867   -0.2908    0.0000 N   0  0
   15.2830    0.6878    0.0000 N   0  0
   15.9962    1.1024    0.0000 C   0  0
   16.7098    0.6897    0.0000 C   0  0
   17.4225    1.1036    0.0000 C   0  0
   17.4205    1.9295    0.0000 C   0  0
   16.6998    2.3397    0.0000 C   0  0
   15.9900    1.9234    0.0000 C   0  0
   13.8576   -1.7893    0.0000 N   0  0
   16.6944    3.1647    0.0000 O   0  0
   17.4062    3.5818    0.0000 C   0  0
   18.1332    2.3451    0.0000 O   0  0
   18.8494    1.9357    0.0000 C   0  0
  4 10  1  0
  5  6  1  0
 10 11  1  0
 11 12  2  0
  2  3  1  0
 12 13  1  0
  3  6  2  0
 13 14  2  0
  1  2  2  0
 14 15  1  0
  5  4  2  0
 15 16  2  0
 16 11  1  0
  6  7  1  0
  2 17  1  0
  7  8  1  0
 15 18  1  0
  8  9  2  0
 18 19  1  0
  9  5  1  0
 14 20  1  0
  4  1  1  0
 20 21  1  0
M  END