
  SciTegic01161211252D

 17 17  0  0  0  0            999 V2000
   -5.2942   -5.8955    0.0000 C   0  0
   -4.5803   -5.4821    0.0000 C   0  0
   -3.8663   -5.8914    0.0000 C   0  0
   -3.1523   -5.4780    0.0000 C   0  0
   -2.4383   -5.8872    0.0000 C   0  0
   -1.7244   -5.4738    0.0000 C   0  0
   -1.0104   -5.8830    0.0000 C   0  0
   -0.2964   -5.4696    0.0000 C   0  0
    0.4200   -5.8822    0.0000 C   0  0
    0.4158   -6.7067    0.0000 C   0  0
    1.1313   -7.1190    0.0000 C   0  0
    1.8478   -6.7048    0.0000 C   0  0
    1.8441   -5.8737    0.0000 C   0  0
    1.1279   -5.4651    0.0000 C   0  0
    2.5648   -7.1163    0.0000 C   0  0
    2.5669   -7.9430    0.0000 O   0  0
    3.2797   -6.7012    0.0000 O   0  0
  8  9  1  0
  4  5  1  0
  9 10  2  0
  2  3  1  0
 10 11  1  0
  5  6  1  0
 11 12  2  0
  1  2  1  0
 12 13  1  0
  6  7  1  0
 13 14  2  0
 14  9  1  0
  3  4  1  0
 12 15  1  0
  7  8  2  0
 15 16  2  0
 15 17  1  0
M  END