
  CDK    9/16/09,9:54

 28 30  0  0  0  0  0  0  0  0999 V2000
   -0.4707   -2.5240    0.0000 C   0  0  0  0  0  0  0  0  0  0  0  0
   -1.1854   -2.9359    0.0000 C   0  0  0  0  0  0  0  0  0  0  0  0
   -1.1854   -3.7638    0.0000 C   0  0  0  0  0  0  0  0  0  0  0  0
   -0.4707   -4.1756    0.0000 C   0  0  0  0  0  0  0  0  0  0  0  0
    0.2441   -3.7638    0.0000 C   0  0  0  0  0  0  0  0  0  0  0  0
    0.2441   -2.9359    0.0000 C   0  0  0  0  0  0  0  0  0  0  0  0
    0.9590   -4.1756    0.0000 S   0  0  0  0  0  0  0  0  0  0  0  0
    1.6779   -4.5875    0.0000 C   0  0  0  0  0  0  0  0  0  0  0  0
    0.5471   -4.8905    0.0000 O   0  0  0  0  0  0  0  0  0  0  0  0
    1.3749   -3.4609    0.0000 O   0  0  0  0  0  0  0  0  0  0  0  0
    1.6779   -5.4155    0.0000 C   0  0  0  0  0  0  0  0  0  0  0  0
    2.3927   -5.8274    0.0000 C   0  0  0  0  0  0  0  0  0  0  0  0
    3.1074   -5.4155    0.0000 C   0  0  0  0  0  0  0  0  0  0  0  0
    3.1074   -4.5875    0.0000 C   0  0  0  0  0  0  0  0  0  0  0  0
    2.3927   -4.1756    0.0000 C   0  0  0  0  0  0  0  0  0  0  0  0
    3.8223   -4.1756    0.0000 S   0  0  0  0  0  0  0  0  0  0  0  0
    3.4104   -3.4609    0.0000 O   0  0  0  0  0  0  0  0  0  0  0  0
    4.2383   -4.8905    0.0000 O   0  0  0  0  0  0  0  0  0  0  0  0
    3.8223   -5.8274    0.0000 C   0  0  0  0  0  0  0  0  0  0  0  0
    4.5412   -3.7638    0.0000 N   0  0  0  0  0  0  0  0  0  0  0  0
    5.2560   -4.1756    0.0000 C   0  0  0  0  0  0  0  0  0  0  0  0
    5.9708   -3.7638    0.0000 C   0  0  0  0  0  0  0  0  0  0  0  0
    6.6856   -4.1756    0.0000 C   0  0  0  0  0  0  0  0  0  0  0  0
    6.6856   -5.0036    0.0000 C   0  0  0  0  0  0  0  0  0  0  0  0
    7.4046   -5.4155    0.0000 C   0  0  0  0  0  0  0  0  0  0  0  0
    8.1193   -5.0036    0.0000 C   0  0  0  0  0  0  0  0  0  0  0  0
    8.1193   -4.1756    0.0000 C   0  0  0  0  0  0  0  0  0  0  0  0
    7.4046   -3.7638    0.0000 C   0  0  0  0  0  0  0  0  0  0  0  0
 13 14  1  0  0  0  0 
  5  7  1  0  0  0  0 
 14 15  2  0  0  0  0 
 15  8  1  0  0  0  0 
  3  4  2  0  0  0  0 
 14 16  1  0  0  0  0 
  7  8  1  0  0  0  0 
 16 17  2  0  0  0  0 
 16 18  2  0  0  0  0 
  7  9  2  0  0  0  0 
 13 19  1  0  0  0  0 
  4  5  1  0  0  0  0 
 16 20  1  0  0  0  0 
  7 10  2  0  0  0  0 
  2  3  1  0  0  0  0 
 21 22  1  0  0  0  0 
  8 11  2  0  0  0  0 
 22 23  1  0  0  0  0 
  5  6  2  0  0  0  0 
 23 24  2  0  0  0  0 
 11 12  1  0  0  0  0 
 24 25  1  0  0  0  0 
  6  1  1  0  0  0  0 
 25 26  2  0  0  0  0 
 12 13  2  0  0  0  0 
 26 27  1  0  0  0  0 
  1  2  2  0  0  0  0 
 27 28  2  0  0  0  0 
 28 23  1  0  0  0  0 
 21 20  1  0  0  0  0 
M  END