
  SciTegic12231509382D

 27 31  0  0  0  0            999 V2000
    2.5889    0.0182    0.0000 N   0  0
    8.3979   -7.3285    0.0000 C   0  0
    1.7138   -1.2033    0.0000 C   0  0
    7.5019   -8.5253    0.0000 C   0  0
    0.2917   -0.7475    0.0000 C   0  0
    7.8206   -5.9397    0.0000 C   0  0
    1.7138    1.2033    0.0000 O   0  0
    0.2917    0.7475    0.0000 C   0  0
    8.3672   -9.7424    0.0000 S   0  0
    3.3443   -5.3916    0.0000 N   0  0
   -1.0028   -1.5132    0.0000 C   0  0
   -1.0028    1.5132    0.0000 C   0  0
    6.0068   -8.3625    0.0000 C   0  0
    5.4147   -6.9642    0.0000 C   0  0
    9.8095   -7.8159    0.0000 C   0  0
    9.7780   -9.3182    0.0000 C   0  0
    6.3108   -5.7660    0.0000 C   0  0
    2.1852   -2.6281    0.0000 C   0  0
    8.5426   -4.9813    0.0000 O   0  0
    3.9258   -6.7752    0.0000 C   0  0
   -2.3155    0.7475    0.0000 C   0  0
    1.2781   -3.8165    0.0000 C   0  0
    3.6753   -2.8147    0.0000 C   0  0
    1.8565   -5.2005    0.0000 C   0  0
    4.2537   -4.1987    0.0000 C   0  0
   -2.3155   -0.7475    0.0000 C   0  0
   -3.3560    1.3452    0.0000 F   0  0
  1  3  2  0
  2  4  2  0
  3  5  1  0
  2  6  1  0
  1  7  1  0
  5  8  2  0
  7  8  1  0
  4  9  1  0
  5 11  1  0
  8 12  1  0
  4 13  1  0
 13 14  1  0
  2 15  1  0
  9 16  1  0
 15 16  2  0
  6 17  1  0
 14 17  1  0
  3 18  1  0
  6 19  2  0
 10 20  1  0
 14 20  1  0
 12 21  2  0
 18 22  1  0
 18 23  1  0
 10 24  1  0
 22 24  1  0
 10 25  1  0
 23 25  1  0
 11 26  2  0
 21 26  1  0
 21 27  1  0
M  END