
  SciTegic05171617282D

 39 43  0  0  0  0            999 V2000
   -7.5740    9.4186    0.0000 C   0  0
   -7.5634    8.2187    0.0000 O   0  0
   -6.2576    7.4789    0.0000 C   0  0
   -5.2235    8.0877    0.0000 O   0  0
   -6.2443    5.9781    0.0000 C   0  0
   -4.9402    5.2369    0.0000 C   0  0
   -4.9300    3.7369    0.0000 C   0  0
   -6.2240    2.9782    0.0000 C   0  0
   -7.5281    3.7194    0.0000 N   0  0
   -8.8243    2.9629    0.0000 C   0  0
  -10.1281    3.7063    0.0000 C   0  0
  -11.4247    2.9521    0.0000 C   0  0
  -11.4208    1.7521    0.0000 F   0  0
  -12.7262    3.6978    0.0000 C   0  0
  -12.7312    5.1978    0.0000 C   0  0
  -11.4346    5.9521    0.0000 C   0  0
  -10.1331    5.2064    0.0000 C   0  0
   -8.8374    5.9638    0.0000 O   0  0
   -8.8431    7.1638    0.0000 C   0  0
   -7.5383    5.2194    0.0000 C   0  0
   -3.6267    2.9927    0.0000 N   0  0
   -3.6187    1.4919    0.0000 C   0  0
   -4.6549    0.8867    0.0000 O   0  0
   -2.3155    0.7475    0.0000 C   0  0
   -2.3155   -0.7475    0.0000 C   0  0
   -1.0028   -1.5132    0.0000 C   0  0
    0.2917   -0.7475    0.0000 C   0  0
    1.7138   -1.2033    0.0000 N   0  0
    2.5889    0.0182    0.0000 N   0  0
    1.7138    1.2033    0.0000 C   0  0
    2.1749    2.6315    0.0000 C   0  0
    1.2517    3.8078    0.0000 C   0  0
    1.8114    5.1995    0.0000 C   0  0
    3.2965    5.4106    0.0000 N   0  0
    4.2218    4.2301    0.0000 C   0  0
    5.4099    4.3989    0.0000 C   0  0
    3.6621    2.8384    0.0000 C   0  0
    0.2917    0.7475    0.0000 C   0  0
   -1.0028    1.5132    0.0000 C   0  0
  1  2  1  0
  2  3  1  0
  3  4  2  0
  3  5  1  0
  5  6  1  0
  6  7  1  0
  7  8  1  0
  8  9  1  0
  9 10  1  0
 10 11  1  0
 11 12  2  0
 12 13  1  0
 12 14  1  0
 14 15  2  0
 15 16  1  0
 16 17  2  0
 11 17  1  0
 17 18  1  0
 18 19  1  0
  9 20  1  0
  5 20  1  0
  7 21  1  0
 21 22  1  0
 22 23  2  0
 22 24  1  0
 24 25  2  0
 25 26  1  0
 26 27  2  0
 27 28  1  0
 28 29  1  0
 29 30  2  0
 30 31  1  0
 31 32  2  0
 32 33  1  0
 33 34  2  0
 34 35  1  0
 35 36  1  0
 35 37  2  0
 31 37  1  0
 30 38  1  0
 27 38  1  0
 38 39  2  0
 24 39  1  0
M  END