
  SciTegic01181116592D

 26 29  0  0  0  0            999 V2000
    8.2222    2.4020    0.0000 C   0  0
    8.9554    2.7401    0.0000 N   0  0
    8.3707    3.1482    0.0000 C   0  0
    9.7781    2.3912    0.0000 C   0  0  2  0  0  0
    8.8185    3.7610    0.0000 C   0  0
    9.0951    3.4733    0.0000 C   0  0
    9.8819    3.1307    0.0000 C   0  0  1  0  0  0
    9.0573    4.3596    0.0000 C   0  0
   10.6022    3.5339    0.0000 O   0  0
   10.1847    1.6729    0.0000 C   0  0
    9.7660    0.9613    0.0000 C   0  0
    8.9410    0.9720    0.0000 C   0  0
    8.5224    0.2615    0.0000 C   0  0
    8.9291   -0.4580    0.0000 C   0  0
    9.7590   -0.4624    0.0000 N   0  0
   10.1739    0.2490    0.0000 C   0  0
   11.3115    3.1117    0.0000 C   0  0
   12.0320    3.5150    0.0000 N   0  0
   11.3005    2.2862    0.0000 O   0  0
   12.7413    3.0927    0.0000 C   0  0
   12.7282    2.2672    0.0000 C   0  0
   13.4369    1.8450    0.0000 C   0  0
   14.1582    2.2483    0.0000 C   0  0
   14.1665    3.0782    0.0000 C   0  0
   13.4574    3.4966    0.0000 C   0  0
   14.8681    1.8270    0.0000 Br  0  0
  2  5  1  0
 12 13  1  0
  3  6  1  0
 13 14  2  0
  4  7  1  0
 14 15  1  0
  5  8  1  0
 15 16  2  0
 16 11  1  0
  6  7  1  0
  9 17  1  0
  6  8  1  0
 17 18  1  0
 17 19  2  0
  7  9  1  1
 18 20  1  0
  1  2  1  0
 20 21  2  0
  4 10  1  6
 21 22  1  0
  1  3  1  0
 22 23  2  0
 10 11  1  0
 23 24  1  0
  2  4  1  0
 24 25  2  0
 25 20  1  0
 11 12  2  0
 23 26  1  0
M  END