
  CDK    9/16/09,10:2

 81 86  0  0  0  0  0  0  0  0999 V2000
    1.4790   -8.4139    0.0000 C   0  0  0  0  0  0  0  0  0  0  0  0
    0.9672   -9.0594    0.0000 C   0  0  0  0  0  0  0  0  0  0  0  0
    1.2710   -9.8260    0.0000 C   0  0  0  0  0  0  0  0  0  0  0  0
    2.0839   -9.9531    0.0000 C   0  0  0  0  0  0  0  0  0  0  0  0
    2.3876  -10.7192    0.0000 C   0  0  0  0  0  0  0  0  0  0  0  0
    0.7440  -10.4693    0.0000 O   0  0  0  0  0  0  0  0  0  0  0  0
    1.0500  -11.2423    0.0000 C   0  0  0  0  0  0  0  0  0  0  0  0
    1.8645  -11.3668    0.0000 C   0  0  0  0  0  0  0  0  0  0  0  0
    2.1657  -12.1320    0.0000 C   0  0  0  0  0  0  0  0  0  0  0  0
    1.6488  -12.7773    0.0000 C   0  0  0  0  0  0  0  0  0  0  0  0
    0.8340  -12.6499    0.0000 C   0  0  0  0  0  0  0  0  0  0  0  0
    0.5370  -11.8807    0.0000 C   0  0  0  0  0  0  0  0  0  0  0  0
    1.1801   -7.6477    0.0000 O   0  0  0  0  0  0  0  0  0  0  0  0
    3.4060  -11.0623    0.0000 C   0  0  0  0  0  0  0  0  0  0  0  0
    4.1156  -10.6310    0.0000 C   0  0  0  0  0  0  0  0  0  0  0  0
    4.8498  -11.8556    0.0000 C   0  0  0  0  0  0  0  0  0  0  0  0
    4.1427  -12.2824    0.0000 C   0  0  0  0  0  0  0  0  0  0  0  0
    3.4208  -11.8872    0.0000 C   0  0  0  0  0  0  0  0  0  0  0  0
    5.5738  -12.2535    0.0000 N   0  0  0  0  0  0  0  0  0  0  0  0
    6.2977  -12.6472    0.0000 C   0  0  0  0  0  0  0  0  0  0  0  0
    7.0217  -13.0449    0.0000 S   0  0  0  0  0  0  0  0  0  0  0  0
    4.0968   -9.8042    0.0000 C   0  0  0  0  0  0  0  0  0  0  0  0
    2.6008   -9.3039    0.0000 C   0  0  0  0  0  0  0  0  0  0  0  0
    3.3714   -9.4097    0.0000 O   0  0  0  0  0  0  0  0  0  0  0  0
    2.3028   -8.5407    0.0000 C   0  0  0  0  0  0  0  0  0  0  0  0
    4.8310  -11.0263    0.0000 C   0  0  0  0  0  0  0  0  0  0  0  0
    0.3139  -13.2939    0.0000 O   0  0  0  0  0  0  0  0  0  0  0  0
    4.8012   -9.3744    0.0000 N   0  0  0  0  0  0  0  0  0  0  0  0
    4.7813   -8.5494    0.0000 C   0  0  0  0  0  0  0  0  0  0  0  0
    5.4856   -8.1196    0.0000 C   0  0  0  0  0  0  0  0  0  0  0  0
    6.2054   -8.5175    0.0000 C   0  0  0  0  0  0  0  0  0  0  0  0
    6.9077   -8.0912    0.0000 C   0  0  0  0  0  0  0  0  0  0  0  0
    6.8919   -7.2659    0.0000 C   0  0  0  0  0  0  0  0  0  0  0  0
    6.1677   -6.8686    0.0000 C   0  0  0  0  0  0  0  0  0  0  0  0
    5.4591   -7.2966    0.0000 C   0  0  0  0  0  0  0  0  0  0  0  0
    9.7479   -4.7787    0.0000 C   0  0  0  0  0  0  0  0  0  0  0  0
   11.1779   -4.7734    0.0000 O   0  0  0  0  0  0  0  0  0  0  0  0
   10.4628   -4.3640    0.0000 C   0  0  0  0  0  0  0  0  0  0  0  0
    9.0314   -4.3686    0.0000 C   0  0  0  0  0  0  0  0  0  0  0  0
    9.0270   -3.5412    0.0000 C   0  0  0  0  0  0  0  0  0  0  0  0
    8.3129   -3.1324    0.0000 C   0  0  0  0  0  0  0  0  0  0  0  0
    8.3084   -2.3097    0.0000 O   0  0  0  0  0  0  0  0  0  0  0  0
   11.1694   -3.1251    0.0000 C   0  0  0  0  0  0  0  0  0  0  0  0
   10.4505   -1.8981    0.0000 O   0  0  0  0  0  0  0  0  0  0  0  0
   11.1649   -2.3060    0.0000 C   0  0  0  0  0  0  0  0  0  0  0  0
   11.8729   -1.0635    0.0000 C   0  0  0  0  0  0  0  0  0  0  0  0
   13.3056   -1.0601    0.0000 O   0  0  0  0  0  0  0  0  0  0  0  0
   12.5889   -0.6452    0.0000 C   0  0  0  0  0  0  0  0  0  0  0  0
   11.1588   -0.6554    0.0000 C   0  0  0  0  0  0  0  0  0  0  0  0
   11.1543    0.1754    0.0000 C   0  0  0  0  0  0  0  0  0  0  0  0
   10.4402    0.5835    0.0000 C   0  0  0  0  0  0  0  0  0  0  0  0
   11.8702    0.5853    0.0000 C   0  0  0  0  0  0  0  0  0  0  0  0
   13.2981    0.5910    0.0000 C   0  0  0  0  0  0  0  0  0  0  0  0
   12.5758    1.8147    0.0000 O   0  0  0  0  0  0  0  0  0  0  0  0
   13.2936    1.4077    0.0000 C   0  0  0  0  0  0  0  0  0  0  0  0
   14.0149    0.1845    0.0000 C   0  0  0  0  0  0  0  0  0  0  0  0
    9.0398   -6.8421    0.0000 C   0  0  0  0  0  0  0  0  0  0  0  0
    9.0353   -6.0174    0.0000 C   0  0  0  0  0  0  0  0  0  0  0  0
    8.3186   -5.6071    0.0000 O   0  0  0  0  0  0  0  0  0  0  0  0
    9.7576   -7.2530    0.0000 C   0  0  0  0  0  0  0  0  0  0  0  0
   10.4671   -6.8371    0.0000 C   0  0  0  0  0  0  0  0  0  0  0  0
   11.1817   -7.2548    0.0000 C   0  0  0  0  0  0  0  0  0  0  0  0
   11.8990   -6.8324    0.0000 C   0  0  0  0  0  0  0  0  0  0  0  0
   11.8941   -6.0078    0.0000 C   0  0  0  0  0  0  0  0  0  0  0  0
   11.1711   -5.5995    0.0000 C   0  0  0  0  0  0  0  0  0  0  0  0
   10.4611   -6.0183    0.0000 C   0  0  0  0  0  0  0  0  0  0  0  0
   12.6053   -5.5911    0.0000 O   0  0  0  0  0  0  0  0  0  0  0  0
   13.3223   -6.0016    0.0000 P   0  0  0  0  0  0  0  0  0  0  0  0
   12.9139   -6.7151    0.0000 O   0  0  0  0  0  0  0  0  0  0  0  0
    9.7493   -5.6038    0.0000 N   0  0  0  0  0  0  0  0  0  0  0  0
    7.5994   -3.5456    0.0000 N   0  0  0  0  0  0  0  0  0  0  0  0
   10.4554   -3.5388    0.0000 N   0  0  0  0  0  0  0  0  0  0  0  0
   11.8773   -1.8887    0.0000 N   0  0  0  0  0  0  0  0  0  0  0  0
   12.5843    0.1799    0.0000 N   0  0  0  0  0  0  0  0  0  0  0  0
   14.7338    0.6014    0.0000 O   0  0  0  0  0  0  0  0  0  0  0  0
   14.0103    1.8291    0.0000 N   0  0  0  0  0  0  0  0  0  0  0  0
    8.3258   -7.2558    0.0000 N   0  0  0  0  0  0  0  0  0  0  0  0
   14.0377   -6.4107    0.0000 O   0  0  0  0  0  0  0  0  0  0  0  0
   13.7351   -5.2801    0.0000 O   0  0  0  0  0  0  0  0  0  0  0  0
    7.6108   -6.8486    0.0000 C   0  0  0  0  0  0  0  0  0  0  0  0
    7.6097   -6.0234    0.0000 O   0  0  0  0  0  0  0  0  0  0  0  0
  9 10  2  0  0  0  0 
 10 11  1  0  0  0  0 
 11 12  2  0  0  0  0 
 12  7  1  0  0  0  0 
  1 13  2  0  0  0  0 
 14 15  2  0  0  0  0 
 15 26  1  0  0  0  0 
 26 16  2  0  0  0  0 
 16 17  1  0  0  0  0 
 17 18  2  0  0  0  0 
 18 14  1  0  0  0  0 
  5 14  1  0  0  0  0 
 16 19  1  0  0  0  0 
 19 20  2  0  0  0  0 
 20 21  2  0  0  0  0 
 15 22  1  0  0  0  0 
 22 24  2  0  0  0  0 
 11 27  1  0  0  0  0 
 22 28  1  0  0  0  0 
 28 29  1  0  0  0  0 
  1 25  1  0  0  0  0 
 30 29  1  1  0  0  0 
 30 31  1  0  0  0  0 
 25 23  2  0  0  0  0 
 23  4  1  0  0  0  0 
  3  2  2  0  0  0  0 
  2  1  1  0  0  0  0 
  3  4  1  0  0  0  0 
 30 35  1  0  0  0  0 
 31 32  1  0  0  0  0 
 32 33  1  0  0  0  0 
 33 34  1  0  0  0  0 
 34 35  1  0  0  0  0 
  3  6  1  0  0  0  0 
  4  5  2  0  0  0  0 
  5  8  1  0  0  0  0 
  7  6  1  0  0  0  0 
  7  8  2  0  0  0  0 
  8  9  1  0  0  0  0 
 56 75  1  0  0  0  0 
 72 43  1  0  0  0  0 
 38 72  1  0  0  0  0 
 55 76  1  0  0  0  0 
 77 57  1  0  0  0  0 
 73 46  1  0  0  0  0 
 45 73  1  0  0  0  0 
 68 78  1  0  0  0  0 
 41 71  1  0  0  0  0 
 68 79  1  0  0  0  0 
 74 53  1  0  0  0  0 
 48 74  1  0  0  0  0 
 41 42  2  0  0  0  0 
 43 45  1  0  0  0  0 
 45 44  2  0  0  0  0 
 46 48  1  0  0  0  0 
 48 47  2  0  0  0  0 
 46 49  1  1  0  0  0 
 49 50  1  0  0  0  0 
 50 51  1  0  0  0  0 
 50 52  1  0  0  0  0 
 53 55  1  0  0  0  0 
 55 54  2  0  0  0  0 
 53 56  1  6  0  0  0 
 57 58  1  0  0  0  0 
 58 59  2  0  0  0  0 
 57 60  1  6  0  0  0 
 60 61  1  0  0  0  0 
 61 62  2  0  0  0  0 
 62 63  1  0  0  0  0 
 63 64  2  0  0  0  0 
 64 65  1  0  0  0  0 
 65 66  2  0  0  0  0 
 66 61  1  0  0  0  0 
 64 67  1  0  0  0  0 
 67 68  1  0  0  0  0 
 68 69  2  0  0  0  0 
 36 38  1  0  0  0  0 
 38 37  2  0  0  0  0 
 36 39  1  1  0  0  0 
 39 40  1  0  0  0  0 
 40 41  1  0  0  0  0 
 58 70  1  0  0  0  0 
 80 77  1  0  0  0  0 
 70 36  1  0  0  0  0 
 80 81  2  0  0  0  0 
 33 80  1  6  0  0  0 
M  END