
  SciTegic09081514172D

 19 21  0  0  0  0            999 V2000
    1.2990   -0.7500    0.0000 N   0  0
    1.2990    0.7500    0.0000 C   0  0
    0.0000    1.5000    0.0000 C   0  0
   -1.2990    0.7500    0.0000 C   0  0
   -1.2990   -0.7500    0.0000 C   0  0
    0.0000   -1.5000    0.0000 C   0  0
    2.5972    1.5031    0.0000 N   0  0
   -2.5987    1.5004    0.0000 N   0  0
    2.5951    3.0039    0.0000 C   0  0
   -2.7390    2.9810    0.0000 C   0  0
   -4.2067    3.2905    0.0000 C   0  0
   -4.9546    1.9903    0.0000 C   0  0  1  0  0  0
   -3.9492    0.8772    0.0000 C   0  0
   -6.4447    1.8344    0.0000 N   0  0
   -7.1502    2.8051    0.0000 C   0  0
    3.8056    3.8680    0.0000 C   0  0
    3.3371    5.2929    0.0000 C   0  0
    1.8371    5.2877    0.0000 C   0  0
    1.3786    3.8595    0.0000 C   0  0
  1  2  2  0
  2  3  1  0
  3  4  2  0
  4  5  1  0
  5  6  2  0
  6  1  1  0
  2  7  1  0
  4  8  1  0
  7  9  1  0
  8 10  1  0
 10 11  1  0
 11 12  1  0
 12 13  1  0
 13  8  1  0
 12 14  1  1
 14 15  1  0
  9 16  1  0
 16 17  1  0
 17 18  1  0
 18 19  1  0
 19  9  1  0
M  END