
          11280715582D 1   1.00000     0.00000     0

 71 74  0     1  0            999 V2000
    5.1833  -12.0167    0.0000 N   0  0  3  0  0  0           0  0  0
    5.1833  -10.5125    0.0000 C   0  0  0  0  0  0           0  0  0
    2.5500  -12.4042    0.0000 C   0  0  0  0  0  0           0  0  0
    5.1875   -7.5083    0.0000 C   0  0  0  0  0  0           0  0  0
   -0.0083   -2.9917    0.0000 C   0  0  0  0  0  0           0  0  0
    3.8875   -5.2542    0.0000 N   0  0  0  0  0  0           0  0  0
   -2.6083   -2.9833    0.0000 N   0  0  0  0  0  0           0  0  0
    6.4833   -9.7625    0.0000 C   0  0  1  0  0  0           0  0  0
    3.8917   -3.7542    0.0000 C   0  0  0  0  0  0           0  0  0
    3.9708  -12.8750    0.0000 C   0  0  2  0  0  0           0  0  0
   -3.9083   -3.7292    0.0000 C   0  0  0  0  0  0           0  0  0
    6.4833   -8.2625    0.0000 N   0  0  0  0  0  0           0  0  0
    1.2917   -3.7458    0.0000 N   0  0  0  0  0  0           0  0  0
    2.2458  -10.9333    0.0000 N   0  0  0  0  0  0           0  0  0
   -1.3083   -3.7375    0.0000 C   0  0  1  0  0  0           0  0  0
    5.1875   -6.0083    0.0000 C   0  0  1  0  0  0           0  0  0
    2.5917   -3.0000    0.0000 C   0  0  1  0  0  0           0  0  0
   11.4375   -9.2792    0.0000 N   0  0  0  0  0  0           0  0  0
    0.8250  -10.4583    0.0000 C   0  0  2  0  0  0           0  0  0
   -7.7875    3.0375    0.0000 C   0  0  0  0  0  0           0  0  0
   -0.3000  -11.4500    0.0000 C   0  0  0  0  0  0           0  0  0
    7.7792  -10.5167    0.0000 C   0  0  0  0  0  0           0  0  0
    9.0833   -9.7708    0.0000 C   0  0  0  0  0  0           0  0  0
   -6.5042   -3.7250    0.0000 N   0  0  0  0  0  0           0  0  0
   -6.5042   -5.2250    0.0000 C   0  0  0  0  0  0           0  0  0
    9.2208   -8.2875    0.0000 N   0  0  0  0  0  0           0  0  0
   10.6875   -7.9792    0.0000 C   0  0  0  0  0  0           0  0  0
   -5.2083   -2.9750    0.0000 C   0  0  1  0  0  0           0  0  0
   -8.8250    3.6375    0.0000 N   0  0  0  0  0  0           0  0  0
   10.4333  -10.3917    0.0000 C   0  0  0  0  0  0           0  0  0
    4.1417   -9.9125    0.0000 O   0  0  0  0  0  0           0  0  0
    1.6500  -13.2000    0.0000 O   0  0  0  0  0  0           0  0  0
    4.1458   -8.1083    0.0000 O   0  0  0  0  0  0           0  0  0
   -0.0042   -1.7917    0.0000 O   0  0  0  0  0  0           0  0  0
    4.9333   -3.1583    0.0000 O   0  0  0  0  0  0           0  0  0
   -3.9125   -4.9292    0.0000 O   0  0  0  0  0  0           0  0  0
    2.5958   -1.5000    0.0000 C   0  0  0  0  0  0           0  0  0
    0.5208   -8.9875    0.0000 C   0  0  0  0  0  0           0  0  0
   -1.4375  -11.0708    0.0000 O   0  0  0  0  0  0           0  0  0
   -7.8042   -5.9750    0.0000 C   0  0  0  0  0  0           0  0  0
   -5.4708   -5.8250    0.0000 O   0  0  0  0  0  0           0  0  0
   -7.7917    1.5333    0.0000 N   0  0  0  0  0  0           0  0  0
   -6.7458    3.6333    0.0000 N   0  0  0  0  0  0           0  0  0
    6.3958  -12.8708    0.0000 C   0  0  0  0  0  0           0  0  0
   -1.3167   -5.2375    0.0000 C   0  0  3  0  0  0           0  0  0
    6.4917   -5.2625    0.0000 C   0  0  3  0  0  0           0  0  0
    3.8958   -0.7500    0.0000 C   0  0  0  0  0  0           0  0  0
   -0.0625  -12.6250    0.0000 O   0  0  0  0  0  0           0  0  0
    6.5000    0.7417    0.0000 C   0  0  0  0  0  0           0  0  0
   -0.9000   -8.5125    0.0000 C   0  0  0  0  0  0           0  0  0
    5.1917   -1.5042    0.0000 C   0  0  0  0  0  0           0  0  0
    3.9000    0.7500    0.0000 C   0  0  0  0  0  0           0  0  0
    5.2000    1.4958    0.0000 C   0  0  0  0  0  0           0  0  0
    6.4917   -0.7583    0.0000 C   0  0  0  0  0  0           0  0  0
    4.4375  -14.3042    0.0000 C   0  0  0  0  0  0           0  0  0
    7.5375    1.3375    0.0000 O   0  0  0  0  0  0           0  0  0
   -8.8458   -8.0750    0.0000 O   0  0  0  0  0  0           0  0  0
    5.9375  -14.3000    0.0000 C   0  0  0  0  0  0           0  0  0
   -7.8083   -7.4750    0.0000 C   0  0  0  0  0  0           0  0  0
   -5.2042   -1.4750    0.0000 C   0  0  0  0  0  0           0  0  0
   -6.4917    0.7792    0.0000 C   0  0  0  0  0  0           0  0  0
    7.5292   -5.8667    0.0000 C   0  0  0  0  0  0           0  0  0
    6.4958   -4.0625    0.0000 C   0  0  0  0  0  0           0  0  0
   -2.3583   -5.8333    0.0000 C   0  0  0  0  0  0           0  0  0
   -0.2833   -5.8458    0.0000 C   0  0  0  0  0  0           0  0  0
   -2.0208   -9.5083    0.0000 C   0  0  0  0  0  0           0  0  0
   -1.2042   -7.0417    0.0000 C   0  0  0  0  0  0           0  0  0
   -6.4958   -0.7208    0.0000 C   0  0  0  0  0  0           0  0  0
   -2.6292   -6.5708    0.0000 C   0  0  0  0  0  0           0  0  0
   -3.4458   -9.0375    0.0000 C   0  0  0  0  0  0           0  0  0
   -3.7500   -7.5667    0.0000 C   0  0  0  0  0  0           0  0  0
  2  1  1  0     0  0
 10  3  1  1     0  0
  4 12  1  0     0  0
  5 13  1  0     0  0
 16  6  1  1     0  0
 15  7  1  6     0  0
  8  2  1  0     0  0
  9  6  1  0     0  0
 10  1  1  0     0  0
 11  7  1  0     0  0
  8 12  1  1     0  0
 17 13  1  1     0  0
 14  3  1  0     0  0
 15  5  1  0     0  0
 16  4  1  0     0  0
 17  9  1  0     0  0
 18 30  1  0     0  0
 19 14  1  6     0  0
 20 42  2  0     0  0
 21 19  1  0     0  0
 22  8  1  0     0  0
 23 22  1  0     0  0
 24 28  1  0     0  0
 25 24  1  0     0  0
 26 23  1  0     0  0
 27 26  2  0     0  0
 28 11  1  0     0  0
 29 20  1  0     0  0
 30 23  2  0     0  0
 31  2  2  0     0  0
 32  3  2  0     0  0
 33  4  2  0     0  0
 34  5  2  0     0  0
 35  9  2  0     0  0
 36 11  2  0     0  0
 37 17  1  0     0  0
 38 19  1  0     0  0
 39 21  2  0     0  0
 40 25  1  0     0  0
 41 25  2  0     0  0
 42 61  1  0     0  0
 43 20  1  0     0  0
 44  1  1  0     0  0
 45 15  1  0     0  0
 46 16  1  0     0  0
 47 37  1  0     0  0
 48 21  1  0     0  0
 49 54  1  0     0  0
 50 38  1  0     0  0
 51 47  1  0     0  0
 52 47  2  0     0  0
 53 52  1  0     0  0
 54 51  2  0     0  0
 55 10  1  0     0  0
 56 49  1  0     0  0
 57 59  1  0     0  0
 58 44  1  0     0  0
 59 40  1  0     0  0
 28 60  1  1     0  0
 61 68  1  0     0  0
 62 46  1  0     0  0
 63 46  1  0     0  0
 64 45  1  0     0  0
 65 45  1  0     0  0
 66 50  1  0     0  0
 67 50  2  0     0  0
 68 60  1  0     0  0
 69 67  1  0     0  0
 70 66  2  0     0  0
 71 70  1  0     0  0
 55 58  1  0     0  0
 27 18  1  0     0  0
 71 69  2  0     0  0
 49 53  2  0     0  0
M  END