
  CDK    6/4/10,11:41

 37 41  0  0  0  0  0  0  0  0999 V2000
    4.6488  -25.2973    0.0000 C   0  0  0  0  0  0  0  0  0  0  0  0
    5.4309  -25.0373    0.0000 C   0  0  0  0  0  0  0  0  0  0  0  0
    5.4272  -24.2135    0.0000 C   0  0  0  0  0  0  0  0  0  0  0  0
    4.6393  -23.9626    0.0000 C   0  0  0  0  0  0  0  0  0  0  0  0
    4.1623  -24.6335    0.0000 O   0  0  0  0  0  0  0  0  0  0  0  0
    4.3984  -26.0825    0.0000 O   0  0  0  0  0  0  0  0  0  0  0  0
    4.8493  -23.1597    0.0000 O   0  0  0  0  0  0  0  0  0  0  0  0
    3.9210  -23.5468    0.0000 C   0  0  0  0  0  0  0  0  0  0  0  0
    3.9247  -22.7159    0.0000 C   0  0  0  0  0  0  0  0  0  0  0  0
    3.2072  -22.3002    0.0000 C   0  0  0  0  0  0  0  0  0  0  0  0
    2.4871  -22.7145    0.0000 C   0  0  0  0  0  0  0  0  0  0  0  0
    2.4889  -23.5487    0.0000 C   0  0  0  0  0  0  0  0  0  0  0  0
    3.2069  -23.9606    0.0000 C   0  0  0  0  0  0  0  0  0  0  0  0
    1.7732  -22.3027    0.0000 O   0  0  0  0  0  0  0  0  0  0  0  0
    6.1460  -23.8105    0.0000 C   0  0  0  0  0  0  0  0  0  0  0  0
    6.1564  -22.9863    0.0000 C   0  0  0  0  0  0  0  0  0  0  0  0
    6.8789  -22.5875    0.0000 C   0  0  0  0  0  0  0  0  0  0  0  0
    6.8897  -21.7641    0.0000 C   0  0  0  0  0  0  0  0  0  0  0  0
    6.1807  -21.3423    0.0000 C   0  0  0  0  0  0  0  0  0  0  0  0
    5.4593  -21.7498    0.0000 C   0  0  0  0  0  0  0  0  0  0  0  0
    5.4522  -22.5717    0.0000 C   0  0  0  0  0  0  0  0  0  0  0  0
    6.1445  -25.4403    0.0000 C   0  0  0  0  0  0  0  0  0  0  0  0
    6.1506  -26.2656    0.0000 C   0  0  0  0  0  0  0  0  0  0  0  0
    6.8673  -26.6711    0.0000 C   0  0  0  0  0  0  0  0  0  0  0  0
    6.8508  -25.0222    0.0000 C   0  0  0  0  0  0  0  0  0  0  0  0
    7.5680  -25.4240    0.0000 C   0  0  0  0  0  0  0  0  0  0  0  0
    7.5784  -26.2519    0.0000 C   0  0  0  0  0  0  0  0  0  0  0  0
    8.3690  -26.4979    0.0000 O   0  0  0  0  0  0  0  0  0  0  0  0
    8.8473  -25.8220    0.0000 C   0  0  0  0  0  0  0  0  0  0  0  0
    8.3522  -25.1584    0.0000 O   0  0  0  0  0  0  0  0  0  0  0  0
    6.1900  -20.5182    0.0000 O   0  0  0  0  0  0  0  0  0  0  0  0
    4.7494  -21.3312    0.0000 O   0  0  0  0  0  0  0  0  0  0  0  0
    4.7569  -20.5070    0.0000 C   0  0  0  0  0  0  0  0  0  0  0  0
    5.4809  -20.0980    0.0000 C   0  0  0  0  0  0  0  0  0  0  0  0
    7.6088  -21.3615    0.0000 O   0  0  0  0  0  0  0  0  0  0  0  0
    8.3170  -21.7829    0.0000 C   0  0  0  0  0  0  0  0  0  0  0  0
    1.0595  -22.7150    0.0000 C   0  0  0  0  0  0  0  0  0  0  0  0
 17 18  1  0  0  0  0 
  8  9  2  0  0  0  0 
 18 19  2  0  0  0  0 
  4  5  1  0  0  0  0 
 19 20  1  0  0  0  0 
  9 10  1  0  0  0  0 
 20 21  2  0  0  0  0 
 21 16  1  0  0  0  0 
  5  1  1  0  0  0  0 
 10 11  2  0  0  0  0 
 22 23  2  0  0  0  0 
  1  2  1  0  0  0  0 
 23 24  1  0  0  0  0 
 24 27  2  0  0  0  0 
 11 12  1  0  0  0  0 
 26 25  2  0  0  0  0 
 25 22  1  0  0  0  0 
  2 22  1  0  0  0  0 
 26 27  1  0  0  0  0 
  1  6  2  0  0  0  0 
 12 13  2  0  0  0  0 
 13  8  1  0  0  0  0 
 11 14  1  0  0  0  0 
 27 28  1  0  0  0  0 
 28 29  1  0  0  0  0 
 29 30  1  0  0  0  0 
 30 26  1  0  0  0  0 
  4  7  1  0  0  0  0 
 19 31  1  0  0  0  0 
  3 15  1  0  0  0  0 
 20 32  1  0  0  0  0 
  2  3  2  0  0  0  0 
 32 33  1  0  0  0  0 
 15 16  1  0  0  0  0 
 31 34  1  0  0  0  0 
  4  8  1  0  0  0  0 
 18 35  1  0  0  0  0 
 16 17  2  0  0  0  0 
 35 36  1  0  0  0  0 
  3  4  1  0  0  0  0 
 14 37  1  0  0  0  0 
M  END