
          11280715242D 1   1.00000     0.00000     0

 43 47  0     0  0            999 V2000
    5.7125   -7.0167    0.0000 N   0  0  0  0  0  0           0  0  0
    5.2375   -5.7667    0.0000 N   0  0  3  0  0  0           0  0  0
    6.3542   -6.4917    0.0000 C   0  0  0  0  0  0           0  0  0
    6.0625   -5.7292    0.0000 N   0  0  0  0  0  0           0  0  0
    5.0250   -6.5667    0.0000 C   0  0  0  0  0  0           0  0  0
    1.1250   -4.3417    0.0000 C   0  0  0  0  0  0           0  0  0
   10.6250   -8.9667    0.0000 C   0  0  0  0  0  0           0  0  0
   10.6250   -8.1417    0.0000 C   0  0  0  0  0  0           0  0  0
    1.5375   -5.0542    0.0000 C   0  0  0  0  0  0           0  0  0
    9.9125   -9.3792    0.0000 C   0  0  0  0  0  0           0  0  0
    1.5375   -3.6292    0.0000 C   0  0  0  0  0  0           0  0  0
    4.8292   -5.0542    0.0000 C   0  0  0  0  0  0           0  0  0
    7.0667   -6.9042    0.0000 S   0  0  0  0  0  0           0  0  0
    2.3625   -5.0542    0.0000 C   0  0  0  0  0  0           0  0  0
    9.9125   -7.7292    0.0000 C   0  0  0  0  0  0           0  0  0
    9.2000   -8.9667    0.0000 O   0  0  0  0  0  0           0  0  0
    2.3625   -3.6167    0.0000 O   0  0  0  0  0  0           0  0  0
    2.7667   -5.7667    0.0000 C   0  0  0  0  0  0           0  0  0
    9.9125   -6.9042    0.0000 C   0  0  0  0  0  0           0  0  0
    2.7625   -4.3417    0.0000 C   0  0  0  0  0  0           0  0  0
    9.2000   -8.1417    0.0000 C   0  0  0  0  0  0           0  0  0
    4.0042   -5.0542    0.0000 C   0  0  0  0  0  0           0  0  0
    9.9125  -10.2042    0.0000 O   0  0  0  0  0  0           0  0  0
    1.1167   -2.9042    0.0000 O   0  0  0  0  0  0           0  0  0
    7.7792   -6.4917    0.0000 C   0  0  0  0  0  0           0  0  0
    8.4917   -6.9042    0.0000 C   0  0  0  0  0  0           0  0  0
    3.5875   -5.7667    0.0000 C   0  0  0  0  0  0           0  0  0
    3.5875   -4.3292    0.0000 C   0  0  0  0  0  0           0  0  0
    8.4875   -7.7292    0.0000 C   0  0  0  0  0  0           0  0  0
    9.2000   -6.4917    0.0000 C   0  0  0  0  0  0           0  0  0
    4.4375   -7.1417    0.0000 C   0  0  0  0  0  0           0  0  0
   11.3375   -9.3792    0.0000 C   0  0  0  0  0  0           0  0  0
    0.3000   -4.3417    0.0000 C   0  0  0  0  0  0           0  0  0
   11.3375   -7.7292    0.0000 C   0  0  0  0  0  0           0  0  0
    1.1250   -5.7667    0.0000 C   0  0  0  0  0  0           0  0  0
    3.6417   -6.9292    0.0000 C   0  0  0  0  0  0           0  0  0
    2.2542   -7.2917    0.0000 C   0  0  0  0  0  0           0  0  0
    3.0625   -7.5042    0.0000 C   0  0  0  0  0  0           0  0  0
   12.0500   -8.1417    0.0000 C   0  0  0  0  0  0           0  0  0
    0.3000   -5.7667    0.0000 C   0  0  0  0  0  0           0  0  0
   -0.1125   -5.0542    0.0000 C   0  0  0  0  0  0           0  0  0
   12.0542   -8.9667    0.0000 C   0  0  0  0  0  0           0  0  0
    1.6792   -7.8792    0.0000 C   0  0  0  0  0  0           0  0  0
  2  5  1  0     0  0
  3  1  1  0     0  0
  4  3  2  0     0  0
  5  1  2  0     0  0
  6  9  2  0     0  0
  7  8  2  0     0  0
  8 15  1  0     0  0
  9 14  1  0     0  0
 10  7  1  0     0  0
 11  6  1  0     0  0
 12  2  1  0     0  0
 13  3  1  0     0  0
 14 20  1  0     0  0
 15 19  1  0     0  0
 16 10  2  0     0  0
 17 11  2  0     0  0
 18 27  1  0     0  0
 19 30  2  0     0  0
 20 28  2  0     0  0
 21 29  1  0     0  0
 22 12  1  0     0  0
 23 10  1  0     0  0
 24 11  1  0     0  0
 25 13  1  0     0  0
 26 25  1  0     0  0
 27 22  2  0     0  0
 28 22  1  0     0  0
 29 26  2  0     0  0
 30 26  1  0     0  0
 31  5  1  0     0  0
 32  7  1  0     0  0
 33  6  1  0     0  0
 34  8  1  0     0  0
 35  9  1  0     0  0
 36 31  1  0     0  0
 37 38  1  0     0  0
 38 36  1  0     0  0
 39 34  2  0     0  0
 40 35  2  0     0  0
 41 40  1  0     0  0
 42 39  1  0     0  0
 43 37  1  0     0  0
  2  4  1  0     0  0
 18 14  2  0     0  0
 15 21  2  0     0  0
 41 33  2  0     0  0
 42 32  2  0     0  0
M  END