
          11280715422D 1   1.00000     0.00000     0

 32 35  0     0  0            999 V2000
   -1.2083    0.4625    0.0000 C   0  0  0  0  0  0           0  0  0
   -1.2083    1.2958    0.0000 N   0  0  0  0  0  0           0  0  0
   -2.6458    1.2958    0.0000 C   0  0  0  0  0  0           0  0  0
   -1.9333    1.7208    0.0000 C   0  0  0  0  0  0           0  0  0
   -1.9333    0.0500    0.0000 N   0  0  0  0  0  0           0  0  0
   -2.6500    0.4625    0.0000 C   0  0  0  0  0  0           0  0  0
   -0.5000    0.0458    0.0000 N   0  0  3  0  0  0           0  0  0
    0.9250   -0.7917    0.0000 N   0  0  3  0  0  0           0  0  0
   -3.3625    1.7083    0.0000 C   0  0  0  0  0  0           0  0  0
   -3.3625    0.0583    0.0000 C   0  0  0  0  0  0           0  0  0
    1.6375   -1.2042    0.0000 C   0  0  0  0  0  0           0  0  0
   -4.0833    1.2958    0.0000 C   0  0  0  0  0  0           0  0  0
   -4.0833    0.4708    0.0000 C   0  0  0  0  0  0           0  0  0
    5.7917   -1.9417    0.0000 S   0  0  0  0  0  0           0  0  0
    6.5750   -1.6917    0.0000 S   0  0  0  0  0  0           0  0  0
   -0.5083   -0.7792    0.0000 C   0  0  0  0  0  0           0  0  0
    0.2167    0.4583    0.0000 C   0  0  0  0  0  0           0  0  0
    0.2000   -1.1917    0.0000 C   0  0  0  0  0  0           0  0  0
    0.9292    0.0375    0.0000 C   0  0  0  0  0  0           0  0  0
    1.6292   -2.0292    0.0000 O   0  0  0  0  0  0           0  0  0
   -1.9333    2.5458    0.0000 N   0  0  0  0  0  0           0  0  0
    5.3000   -1.2792    0.0000 C   0  0  3  0  0  0           0  0  0
   -4.7875    1.7083    0.0000 O   0  0  0  0  0  0           0  0  0
   -4.8000    0.0583    0.0000 O   0  0  0  0  0  0           0  0  0
    5.7875   -0.6167    0.0000 C   0  0  0  0  0  0           0  0  0
    6.5750   -0.8667    0.0000 C   0  0  0  0  0  0           0  0  0
    2.3542   -0.8167    0.0000 C   0  0  0  0  0  0           0  0  0
    4.4792   -1.2792    0.0000 C   0  0  0  0  0  0           0  0  0
   -5.5083    0.4708    0.0000 C   0  0  0  0  0  0           0  0  0
   -4.7875    2.5333    0.0000 C   0  0  0  0  0  0           0  0  0
    3.0542   -1.2417    0.0000 C   0  0  0  0  0  0           0  0  0
    3.7792   -0.8542    0.0000 C   0  0  0  0  0  0           0  0  0
  2  1  1  0     0  0
  3  6  1  0     0  0
  4  2  2  0     0  0
  5  1  2  0     0  0
  6  5  1  0     0  0
  7  1  1  0     0  0
  8 19  1  0     0  0
  9  3  2  0     0  0
 10  6  2  0     0  0
 11  8  1  0     0  0
 12 13  2  0     0  0
 13 10  1  0     0  0
 14 22  1  0     0  0
 15 14  1  0     0  0
 16  7  1  0     0  0
 17  7  1  0     0  0
 18 16  1  0     0  0
 19 17  1  0     0  0
 20 11  2  0     0  0
 21  4  1  0     0  0
 22 28  1  0     0  0
 23 12  1  0     0  0
 24 13  1  0     0  0
 25 22  1  0     0  0
 26 25  1  0     0  0
 27 11  1  0     0  0
 28 32  1  0     0  0
 29 24  1  0     0  0
 30 23  1  0     0  0
 31 27  1  0     0  0
 32 31  1  0     0  0
  3  4  1  0     0  0
  8 18  1  0     0  0
  9 12  1  0     0  0
 15 26  1  0     0  0
M  END