
  SciTegic12231509382D

133145  0  0  1  0            999 V2000
   17.1477    0.3762    0.0000 C   0  0  2  0  0  0
   17.2932   -7.7244    0.0000 C   0  0  2  0  0  0
   16.4108   -0.0650    0.0000 C   0  0  1  0  0  0
   16.5562   -8.1656    0.0000 C   0  0  1  0  0  0
   16.4108   -0.8891    0.0000 C   0  0  2  0  0  0
   16.5562   -8.9896    0.0000 C   0  0  2  0  0  0
   17.1332    1.2244    0.0000 C   0  0
   17.2786   -6.8761    0.0000 C   0  0
   17.8264   -0.0214    0.0000 C   0  0
   17.9718   -8.1219    0.0000 C   0  0
   18.5923    3.6871    0.0000 C   0  0  2  0  0  0
   18.7377   -4.4134    0.0000 C   0  0  2  0  0  0
   17.8264   -0.8891    0.0000 C   0  0
   17.9718   -8.9896    0.0000 C   0  0
   15.6158   -1.1752    0.0000 O   0  0
   15.7612   -9.2757    0.0000 O   0  0
   15.6158    0.1677    0.0000 C   0  0
   15.7612   -7.9329    0.0000 C   0  0
   11.1123    3.7744    0.0000 C   0  0  2  0  0  0
   11.2578   -4.3262    0.0000 C   0  0  2  0  0  0
   17.2932   -9.3872    0.0000 C   0  0  1  0  0  0
   17.1477   -1.2866    0.0000 C   0  0  1  0  0  0
   19.4892   -4.8497    0.0000 O   0  0
   19.3437    3.2508    0.0000 O   0  0
    9.5804    3.3526    0.0000 C   0  0  2  0  0  0
    9.7258   -4.7479    0.0000 C   0  0  2  0  0  0
   12.7654    3.7744    0.0000 C   0  0  2  0  0  0
   12.9108   -4.3262    0.0000 C   0  0  2  0  0  0
   17.9718   -6.4980    0.0000 O   0  0
   17.8264    1.6025    0.0000 O   0  0
   12.3533    4.4870    0.0000 O   0  0
   12.4987   -3.6136    0.0000 O   0  0
    9.1732    4.0652    0.0000 O   0  0
    9.3186   -4.0353    0.0000 O   0  0
   12.4987   -5.0388    0.0000 C   0  0
   12.3533    3.0618    0.0000 C   0  0
    9.1732    2.6400    0.0000 C   0  0
    9.3186   -5.4605    0.0000 C   0  0
   11.6746   -5.0388    0.0000 C   0  0  2  0  0  0
   11.5292    3.0618    0.0000 C   0  0  2  0  0  0
    7.9322    3.3526    0.0000 C   0  0  2  0  0  0
    8.0776   -4.7479    0.0000 C   0  0  2  0  0  0
   14.3845   -4.3601    0.0000 C   0  0  1  0  0  0
   14.2391    3.7404    0.0000 C   0  0  1  0  0  0
   11.6746   -3.6136    0.0000 C   0  0  1  0  0  0
   11.5292    4.4870    0.0000 C   0  0  1  0  0  0
   18.5923    2.8485    0.0000 C   0  0
   18.7377   -5.2520    0.0000 C   0  0
   17.8506    4.0992    0.0000 O   0  0
   17.9960   -4.0013    0.0000 O   0  0
    8.3491    2.6400    0.0000 C   0  0  1  0  0  0
    8.4946   -5.4605    0.0000 C   0  0  1  0  0  0
   20.1242   -4.4329    0.0000 C   0  0  1  0  0  0
   19.9788    3.6677    0.0000 C   0  0  1  0  0  0
   17.9718   -5.6592    0.0000 C   0  0  2  0  0  0
   17.8264    2.4413    0.0000 C   0  0  2  0  0  0
    8.4946   -4.0353    0.0000 C   0  0  2  0  0  0
    8.3491    4.0652    0.0000 C   0  0  2  0  0  0
   14.9808    4.1476    0.0000 C   0  0
   15.1262   -3.9529    0.0000 C   0  0
   10.2930    3.7695    0.0000 O   0  0
   10.4385   -4.3311    0.0000 O   0  0
   13.6185   -3.9093    0.0000 O   0  0
   13.4731    4.1912    0.0000 O   0  0
   15.6982    3.7404    0.0000 C   0  0
   15.8436   -4.3601    0.0000 C   0  0
   15.1408   -0.4480    0.0000 C   0  0
   15.2862   -8.5486    0.0000 C   0  0
   15.6158    1.0063    0.0000 C   0  0
   15.7612   -7.0942    0.0000 C   0  0
   16.4108    1.6462    0.0000 O   0  0
   16.5562   -6.4543    0.0000 O   0  0
   15.0632    1.4135    0.0000 C   0  0
   15.2086   -6.6870    0.0000 C   0  0
   17.1477    2.8581    0.0000 C   0  0
   17.2932   -5.2424    0.0000 C   0  0
   17.1477    3.7258    0.0000 C   0  0  1  0  0  0
   17.2932   -4.3747    0.0000 C   0  0  1  0  0  0
   14.2391    2.8485    0.0000 C   0  0  2  0  0  0
   14.3845   -5.2520    0.0000 C   0  0  2  0  0  0
   19.9788    4.4482    0.0000 C   0  0  2  0  0  0
   20.1242   -3.6523    0.0000 C   0  0  2  0  0  0
   15.0632    2.3104    0.0000 C   0  0
   15.2086   -5.7901    0.0000 C   0  0
   16.4253    0.7736    0.0000 O   0  0
   16.5708   -7.3269    0.0000 O   0  0
   18.6020    4.4482    0.0000 C   0  0
   18.7475   -3.6523    0.0000 C   0  0
   19.3437    4.8651    0.0000 C   0  0
   19.4892   -3.2354    0.0000 C   0  0
   16.4253    4.1476    0.0000 C   0  0
   16.5708   -3.9529    0.0000 C   0  0
   20.7786   -4.8110    0.0000 C   0  0
   20.6332    3.2896    0.0000 C   0  0  2  0  0  0
   17.3077  -10.2112    0.0000 O   0  0
   17.1623   -2.1107    0.0000 O   0  0
    7.1081    3.3526    0.0000 O   0  0
    7.2535   -4.7479    0.0000 O   0  0
   11.1171    2.3491    0.0000 O   0  0
   11.2625   -5.7514    0.0000 O   0  0
    7.9370    1.9274    0.0000 O   0  0
    8.0825   -6.1731    0.0000 O   0  0
   18.5244   -1.3206    0.0000 C   0  0
   18.6699   -9.4212    0.0000 C   0  0
   14.9808    4.9669    0.0000 C   0  0
   15.1262   -3.1336    0.0000 C   0  0
   11.1171    5.1996    0.0000 C   0  0
   11.2625   -2.9009    0.0000 C   0  0
    7.9370    4.7827    0.0000 C   0  0
    8.0825   -3.3178    0.0000 C   0  0
   13.5216    2.4413    0.0000 C   0  0
   13.6670   -5.6592    0.0000 C   0  0
   20.6768    4.8796    0.0000 C   0  0
   20.8223   -3.2209    0.0000 C   0  0
   20.6332    2.5333    0.0000 C   0  0
   20.7786   -5.5672    0.0000 C   0  0
   21.4331   -4.4329    0.0000 C   0  0
   21.2876    3.6677    0.0000 C   0  0
   11.5341    1.6365    0.0000 C   0  0
    8.3491    1.2148    0.0000 C   0  0
   11.6795   -6.4640    0.0000 C   0  0
    8.4946   -6.8858    0.0000 C   0  0
   21.2876    2.1552    0.0000 C   0  0
   17.3165   -3.2115    0.0000 H   0  0
   17.1711    4.8891    0.0000 H   0  0
   18.8237    1.8420    0.0000 H   0  0
   18.9691   -6.2585    0.0000 H   0  0
   20.0119    2.5047    0.0000 H   0  0
   20.1573   -5.5958    0.0000 H   0  0
   16.4694  -10.1498    0.0000 H   0  0
   16.3240   -2.0493    0.0000 H   0  0
   18.2976   -7.1372    0.0000 H   0  0
   18.1521    0.9633    0.0000 H   0  0
  3  1  1  0
  4  2  1  0
  5  3  1  0
  6  4  1  0
  1  7  1  0
  2  8  1  0
  9  1  1  0
 10  2  1  0
 11 47  1  1
 12 48  1  1
 13  9  2  0
 14 10  2  0
 15  5  1  0
 16  6  1  0
 17  3  1  0
 18  4  1  0
 19 46  1  0
 20 45  1  0
 21 14  1  0
 22 13  1  0
 12 23  1  0
 11 24  1  0
 25 61  1  1
 26 62  1  1
 27 64  1  1
 28 63  1  1
 29  8  1  0
 30  7  1  0
 31 27  1  0
 32 28  1  0
 33 25  1  0
 34 26  1  0
 35 28  1  0
 36 27  1  0
 37 25  1  0
 38 26  1  0
 39 35  1  0
 40 36  1  0
 41 58  1  0
 42 57  1  0
 43 80  1  0
 44 79  1  0
 45 32  1  0
 46 31  1  0
 47 56  1  0
 48 55  1  0
 49 11  1  0
 50 78  1  0
 51 37  1  0
 52 38  1  0
 53 23  1  0
 54 24  1  0
 55 29  1  0
 56 30  1  0
 57 34  1  0
 58 33  1  0
 59 65  2  0
 60 66  2  0
 19 61  1  1
 20 62  1  1
 43 63  1  6
 44 64  1  6
 65 91  1  0
 66 92  1  0
 67 17  1  0
 68 18  1  0
 69 17  2  0
 70 18  2  0
 71  7  2  0
 72  8  2  0
 73 69  1  0
 74 70  1  0
 75 56  1  0
 76 55  1  0
 77 75  1  0
 78 76  1  0
 79 83  1  0
 80 84  1  0
 81 54  1  0
 82 90  1  0
 83 73  2  0
 84 74  2  0
  3 85  1  6
  4 86  1  6
 11 87  1  0
 88 12  1  0
 89 87  1  0
 90 88  1  0
 77 91  1  0
 78 92  1  0
 93 53  1  0
 94 54  1  0
 21 95  1  1
 22 96  1  1
 41 97  1  1
 42 98  1  1
 40 99  1  6
 39100  1  6
 51101  1  6
 52102  1  6
103 13  1  0
104 14  1  0
105 59  1  0
106 60  1  0
 46107  1  6
 45108  1  6
 58109  1  6
 57110  1  6
 79111  1  6
 80112  1  6
 81113  1  6
 82114  1  6
 94115  1  0
 93116  1  0
117 93  1  0
 94118  1  1
119 99  1  0
120101  1  0
121100  1  0
122102  1  0
123115  1  0
 22  5  1  0
 67 15  1  0
 77 49  1  0
 89 81  1  0
 59 44  1  0
 19 40  1  0
 41 51  1  0
 21  6  1  0
 68 16  1  0
 50 12  1  0
 60 43  1  0
 82 53  1  0
 20 39  1  0
 42 52  1  0
 78124  1  6
 77125  1  6
 56126  1  6
 55127  1  6
 54128  1  6
 53129  1  6
  6130  1  6
  5131  1  6
  2132  1  1
  1133  1  1
M  END