
  SciTegic12171512562D

 23 23  0  0  0  0            999 V2000
    5.9667   -2.5500    0.0000 C   0  0
    5.1417   -2.5500    0.0000 C   0  0
    5.9667   -5.4125    0.0000 N   0  3
    3.4792   -6.8417    0.0000 N   0  0
    6.3792   -1.8292    0.0000 O   0  0
    4.7292   -3.2667    0.0000 C   0  0
    4.7292   -1.8375    0.0000 C   0  0
    6.3792   -3.2625    0.0000 O   0  0
    3.4917   -2.5500    0.0000 C   0  0
    2.6667   -2.5500    0.0000 N   0  0
    3.9042   -1.8375    0.0000 C   0  0
    3.9042   -3.2667    0.0000 C   0  0
    4.7250   -6.1292    0.0000 C   0  0
    5.9667   -3.9792    0.0000 C   0  0
    5.5542   -6.1292    0.0000 C   0  0
    6.3792   -4.6917    0.0000 C   0  0
    4.3125   -6.8417    0.0000 C   0  0
    5.2500   -4.9917    0.0000 C   0  0
    6.6917   -5.8292    0.0000 C   0  0
    2.2542   -1.8375    0.0000 C   0  0
    1.4250   -1.8375    0.0000 C   0  0
    1.0125   -1.1250    0.0000 C   0  0
    0.1792   -1.1250    0.0000 C   0  0
  2  1  1  0
  3 16  1  0
  4 17  1  0
  5  1  2  0
  6  2  1  0
  7  2  2  0
  8  1  1  0
  9 11  2  0
 10  9  1  0
 11  7  1  0
 12  6  2  0
 13 15  1  0
 14  8  1  0
 15  3  1  0
 16 14  1  0
 17 13  1  0
 18  3  1  0
 19  3  1  0
 20 10  1  0
 21 20  1  0
 22 21  1  0
 23 22  1  0
 12  9  1  0
M  CHG  1   3   1
M  END