
  SciTegic02231516322D

 26 25  0  0  0  0            999 V2000
   12.5276   -2.3499    0.0000 C   0  0
   12.5264   -3.1773    0.0000 C   0  0
   13.2412   -3.5901    0.0000 C   0  0
   13.9576   -3.1768    0.0000 C   0  0
   13.9548   -2.3463    0.0000 C   0  0
   13.2394   -1.9372    0.0000 C   0  0
   14.6728   -3.5882    0.0000 O   0  0
   14.6677   -1.9312    0.0000 O   0  0
   15.3837   -2.3409    0.0000 C   0  0
   16.0966   -1.9257    0.0000 C   0  0
   16.8126   -2.3356    0.0000 C   0  0
   16.0935   -1.1007    0.0000 O   0  0
   15.3865   -3.1746    0.0000 C   0  0
   16.1017   -3.5859    0.0000 C   0  0
   16.1030   -4.4109    0.0000 O   0  0
   16.8157   -3.1605    0.0000 C   0  0
   17.5255   -1.9203    0.0000 N   0  0
   17.5357   -3.5632    0.0000 N   0  0
   17.5470   -4.3881    0.0000 C   0  0
   18.2671   -4.7907    0.0000 C   0  0
   16.8383   -4.8104    0.0000 C   0  0
   18.2415   -2.3301    0.0000 C   0  0
   18.9544   -1.9150    0.0000 C   0  0
   18.2446   -3.1551    0.0000 C   0  0
   13.2410   -4.4151    0.0000 C   0  0
   20.4012   -4.0149    0.0000 Cl  0  0
  1  2  2  0
  2  3  1  0
  3  4  2  0
  4  5  1  0
  5  6  2  0
  6  1  1  0
  4  7  1  0
  5  8  1  0
  8  9  1  0
  9 10  1  0
 10 11  1  0
 10 12  1  0
  7 13  1  0
 13 14  1  0
 14 16  1  0
 14 15  1  0
 11 17  1  0
 16 18  1  0
 18 19  1  0
 19 20  1  0
 19 21  1  0
 17 22  1  0
 22 23  1  0
 22 24  1  0
  3 25  1  0
M  END