
          05080814032D 1   1.00000     0.00000     0

 34 37  0     1  0            999 V2000
   16.1722  -11.6903    0.0000 C   0  0  1  0  0  0           0  0  0
   14.7574  -13.3538    0.0000 C   0  0  0  0  0  0           0  0  0
   14.7562  -14.1817    0.0000 C   0  0  0  0  0  0           0  0  0
   15.4715  -14.5947    0.0000 C   0  0  0  0  0  0           0  0  0
   15.4697  -12.9407    0.0000 C   0  0  0  0  0  0           0  0  0
   16.1855  -13.3502    0.0000 C   0  0  0  0  0  0           0  0  0
   16.1863  -14.1775    0.0000 C   0  0  0  0  0  0           0  0  0
   16.9020  -14.5887    0.0000 N   0  0  0  0  0  0           0  0  0
   17.6174  -14.1737    0.0000 C   0  0  0  0  0  0           0  0  0
   17.6126  -13.3432    0.0000 C   0  0  0  0  0  0           0  0  0
   16.8963  -12.9357    0.0000 C   0  0  0  0  0  0           0  0  0
   18.3304  -14.5795    0.0000 C   0  0  0  0  0  0           0  0  0
   18.3323  -15.4061    0.0000 C   0  0  0  0  0  0           0  0  0
   19.0479  -15.8161    0.0000 C   0  0  0  0  0  0           0  0  0
   19.7621  -15.4004    0.0000 C   0  0  0  0  0  0           0  0  0
   19.7563  -14.5707    0.0000 C   0  0  0  0  0  0           0  0  0
   19.0401  -14.1646    0.0000 C   0  0  0  0  0  0           0  0  0
   21.1920  -15.3930    0.0000 C   0  0  0  0  0  0           0  0  0
   20.4794  -15.8061    0.0000 C   0  0  0  0  0  0           0  0  0
   20.4818  -16.6279    0.0000 C   0  0  0  0  0  0           0  0  0
   21.1961  -17.0375    0.0000 C   0  0  0  0  0  0           0  0  0
   21.9093  -16.6194    0.0000 C   0  0  0  0  0  0           0  0  0
   21.9034  -15.7991    0.0000 C   0  0  0  0  0  0           0  0  0
   16.8905  -12.1034    0.0000 N   0  0  0  0  0  0           0  0  0
   21.1892  -14.5675    0.0000 O   0  0  0  0  0  0           0  0  0
   20.4729  -14.1572    0.0000 C   0  0  0  0  0  0           0  0  0
   20.4701  -13.3317    0.0000 C   0  0  0  0  0  0           0  0  0
   14.0424  -12.9412    0.0000 F   0  0  0  0  0  0           0  0  0
   18.3251  -12.9261    0.0000 C   0  0  0  0  0  0           0  0  0
   19.0364  -12.5075    0.0000 N   0  0  0  0  0  0           0  0  0
   16.1754  -10.8653    0.0000 C   0  0  0  0  0  0           0  0  0
   16.8888  -10.4512    0.0000 O   0  0  0  0  0  0           0  0  0
   15.4591  -10.4515    0.0000 O   0  0  0  0  0  0           0  0  0
   15.4569  -12.1023    0.0000 C   0  0  0  0  0  0           0  0  0
 17 12  1  0     0  0
  9 12  1  0     0  0
 15 19  1  0     0  0
  8  9  2  0     0  0
  6  5  2  0     0  0
 18 19  2  0     0  0
  9 10  1  0     0  0
 19 20  1  0     0  0
  5  2  1  0     0  0
 20 21  2  0     0  0
 10 11  2  0     0  0
 21 22  1  0     0  0
 11  6  1  0     0  0
 22 23  2  0     0  0
 23 18  1  0     0  0
 11 24  1  0     0  0
 24  1  1  0     0  0
  3  4  1  0     0  0
 18 25  1  0     0  0
 12 13  2  0     0  0
 25 26  1  0     0  0
  6  7  1  0     0  0
 26 27  1  0     0  0
 13 14  1  0     0  0
  2 28  1  0     0  0
  4  7  2  0     0  0
 10 29  1  0     0  0
 14 15  2  0     0  0
 29 30  3  0     0  0
  7  8  1  0     0  0
  1 31  1  0     0  0
 15 16  1  0     0  0
  2  3  2  0     0  0
 31 32  1  0     0  0
 31 33  2  0     0  0
 16 17  2  0     0  0
  1 34  1  6     0  0
M  END