
  SciTegic10011413212D

 49 51  0  0  0  0            999 V2000
    4.0280  -24.7374    0.0000 C   0  0  2  0  0  0
    4.7418  -25.1495    0.0000 C   0  0
    5.4555  -24.7374    0.0000 C   0  0  2  0  0  0
    4.0280  -23.9049    0.0000 C   0  0
    4.7418  -23.4929    0.0000 C   0  0
    4.7418  -22.6646    0.0000 C   0  0
    5.4555  -22.2525    0.0000 C   0  0
    5.4555  -21.4283    0.0000 C   0  0
    6.1692  -21.0163    0.0000 C   0  0  2  0  0  0
    6.9530  -21.2709    0.0000 C   0  0
    7.4374  -20.6001    0.0000 C   0  0
    6.9530  -19.9375    0.0000 C   0  0  2  0  0  0
    7.2451  -19.1662    0.0000 C   0  0  1  0  0  0
    8.0592  -19.0289    0.0000 C   0  0
    8.5836  -19.6637    0.0000 C   0  0
    9.3977  -19.5265    0.0000 C   0  0
    9.9180  -20.1612    0.0000 C   0  0
    6.7182  -18.5257    0.0000 C   0  0
    6.1692  -20.1879    0.0000 C   0  0  2  0  0  0
    6.1692  -19.3597    0.0000 C   0  0
    5.4555  -19.7760    0.0000 C   0  0
    4.7376  -20.1879    0.0000 C   0  0
    4.7376  -21.0163    0.0000 C   0  0
    5.4555  -23.9049    0.0000 C   0  0
    3.3060  -25.1577    0.0000 O   0  0
    7.7730  -19.8958    0.0000 H   0  0
    6.1778  -25.1591    0.0000 O   0  0
    7.0050  -17.7553    0.0000 C   0  0
    7.2936  -16.9811    0.0000 C   0  0
    7.5804  -16.2065    0.0000 C   0  0
    8.3937  -16.0678    0.0000 C   0  0
    7.0535  -15.5718    0.0000 C   0  0
    7.7918  -15.4044    0.0000 O   0  0
    9.6270  -20.9333    0.0000 C   0  0
   10.7322  -20.0273    0.0000 C   0  0
   10.5001  -20.7420    0.0000 O   0  0
    8.9204  -16.7026    0.0000 F   0  0
    8.6801  -15.2940    0.0000 F   0  0
    9.1876  -15.8503    0.0000 F   0  0
    7.3399  -14.7980    0.0000 F   0  0
    6.2404  -15.7106    0.0000 F   0  0
    6.6334  -14.8544    0.0000 F   0  0
    8.8129  -21.0671    0.0000 D   0  0
   10.1500  -21.5713    0.0000 D   0  0
    9.2085  -21.6419    0.0000 D   0  0
   11.2551  -20.6654    0.0000 D   0  0
   11.0232  -19.2554    0.0000 D   0  0
   11.5251  -19.8086    0.0000 D   0  0
    6.1626  -21.8378    0.0000 H   0  0
  1  2  1  0
  2  3  1  0
  1  4  1  0
  4  5  1  0
  5  6  2  0
  6  7  1  0
  7  8  2  0
  9  8  1  0
  9 10  1  0
 10 11  1  0
 12 11  1  0
 13 12  1  0
 13 14  1  6
 14 15  1  0
 15 16  1  0
 16 17  1  0
 13 18  1  0
 12 19  1  0
 19  9  1  0
 19 20  1  1
 19 21  1  0
 21 22  1  0
 22 23  1  0
  8 23  1  0
  3 24  1  0
  5 24  1  0
  1 25  1  1
 12 26  1  6
  3 27  1  6
 18 28  1  0
 28 29  3  0
 29 30  1  0
 30 31  1  0
 30 32  1  0
 30 33  1  0
 17 34  1  0
 17 35  1  0
 17 36  1  0
 31 37  1  0
 31 38  1  0
 31 39  1  0
 32 40  1  0
 32 41  1  0
 32 42  1  0
 34 43  1  0
 34 44  1  0
 34 45  1  0
 35 46  1  0
 35 47  1  0
 35 48  1  0
  9 49  1  6
M  END