
          11280714502D 1   1.00000     0.00000     0

 28 31  0     1  0            999 V2000
    3.4667   -1.6917    0.0000 N   0  0  3  0  0  0           0  0  0
    2.9417   -1.9875    0.0000 C   0  0  2  0  0  0           0  0  0
    2.4292   -1.6917    0.0000 C   0  0  0  0  0  0           0  0  0
    2.4292   -1.0917    0.0000 C   0  0  0  0  0  0           0  0  0
    2.9417   -2.5792    0.0000 C   0  0  0  0  0  0           0  0  0
    1.9167   -1.9875    0.0000 C   0  0  0  0  0  0           0  0  0
    3.4625   -2.8792    0.0000 C   0  0  1  0  0  0           0  0  0
    3.9875   -1.9875    0.0000 C   0  0  0  0  0  0           0  0  0
    1.4000   -1.6917    0.0000 C   0  0  0  0  0  0           0  0  0
    3.9792   -2.5917    0.0000 C   0  0  3  0  0  0           0  0  0
    1.9167   -0.7917    0.0000 C   0  0  0  0  0  0           0  0  0
    1.3917   -1.0875    0.0000 C   0  0  0  0  0  0           0  0  0
    3.4667   -1.0917    0.0000 C   0  0  0  0  0  0           0  0  0
    2.9417   -0.7917    0.0000 C   0  0  0  0  0  0           0  0  0
    3.4542   -3.4792    0.0000 C   0  0  0  0  0  0           0  0  0
    4.4917   -2.8917    0.0000 C   0  0  0  0  0  0           0  0  0
    3.9667   -3.7792    0.0000 C   0  0  1  0  0  0           0  0  0
    0.8792   -1.9875    0.0000 O   0  0  0  0  0  0           0  0  0
    0.8792   -0.7917    0.0000 O   0  0  0  0  0  0           0  0  0
    4.4875   -3.4917    0.0000 C   0  0  0  0  0  0           0  0  0
    4.3875   -4.2042    0.0000 O   0  0  0  0  0  0           0  0  0
    0.3625   -1.6917    0.0000 C   0  0  0  0  0  0           0  0  0
    0.8792   -0.1917    0.0000 C   0  0  0  0  0  0           0  0  0
   -0.1583   -1.9917    0.0000 C   0  0  0  0  0  0           0  0  0
    0.3542    0.1083    0.0000 C   0  0  0  0  0  0           0  0  0
    3.5417   -4.2042    0.0000 H   0  0  0  0  0  0           0  0  0
    2.9417   -3.1792    0.0000 H   0  0  0  0  0  0           0  0  0
    2.4250   -2.2792    0.0000 H   0  0  0  0  0  0           0  0  0
  2  1  1  0     0  0
  3  2  1  0     0  0
  4 14  1  0     0  0
  5  2  1  0     0  0
  6  3  1  0     0  0
  7 10  1  0     0  0
  8  1  1  0     0  0
  9  6  2  0     0  0
 10  8  1  0     0  0
 11  4  1  0     0  0
 12 11  2  0     0  0
 13  1  1  0     0  0
 14 13  1  0     0  0
 15  7  1  0     0  0
 16 10  1  0     0  0
 17 20  1  0     0  0
 18  9  1  0     0  0
 19 12  1  0     0  0
 20 16  1  0     0  0
 17 21  1  1     0  0
 22 18  1  0     0  0
 23 19  1  0     0  0
 24 22  1  0     0  0
 25 23  1  0     0  0
 17 26  1  6     0  0
  7 27  1  6     0  0
  2 28  1  6     0  0
  4  3  2  0     0  0
  7  5  1  0     0  0
  9 12  1  0     0  0
 17 15  1  0     0  0
M  END