
  CDK    9/16/09,10:4

 21 23  0  0  0  0  0  0  0  0999 V2000
   11.1753   -6.9257    0.0000 C   0  0  0  0  0  0  0  0  0  0  0  0
   11.8890   -6.5137    0.0000 N   0  0  0  0  0  0  0  0  0  0  0  0
   10.4616   -6.5137    0.0000 N   0  0  0  0  0  0  0  0  0  0  0  0
   11.1753   -7.7498    0.0000 S   0  0  0  0  0  0  0  0  0  0  0  0
    9.7480   -6.9257    0.0000 C   0  0  0  0  0  0  0  0  0  0  0  0
    9.0348   -6.5106    0.0000 C   0  0  0  0  0  0  0  0  0  0  0  0
    8.3216   -6.9219    0.0000 C   0  0  0  0  0  0  0  0  0  0  0  0
    8.3211   -7.7469    0.0000 C   0  0  0  0  0  0  0  0  0  0  0  0
    9.0398   -8.1588    0.0000 C   0  0  0  0  0  0  0  0  0  0  0  0
    9.7502   -7.7450    0.0000 C   0  0  0  0  0  0  0  0  0  0  0  0
   12.6026   -6.9257    0.0000 C   0  0  0  0  0  0  0  0  0  0  0  0
   12.6002   -7.7509    0.0000 C   0  0  0  0  0  0  0  0  0  0  0  0
   13.3130   -8.1629    0.0000 C   0  0  0  0  0  0  0  0  0  0  0  0
   13.3116   -6.5142    0.0000 C   0  0  0  0  0  0  0  0  0  0  0  0
    9.0427   -8.9829    0.0000 Br  0  0  0  0  0  0  0  0  0  0  0  0
   14.0250   -6.9224    0.0000 C   0  0  0  0  0  0  0  0  0  0  0  0
   14.0287   -7.7493    0.0000 C   0  0  0  0  0  0  0  0  0  0  0  0
   14.8162   -8.0015    0.0000 C   0  0  0  0  0  0  0  0  0  0  0  0
   15.2993   -7.3303    0.0000 O   0  0  0  0  0  0  0  0  0  0  0  0
   14.8103   -6.6635    0.0000 C   0  0  0  0  0  0  0  0  0  0  0  0
   15.0615   -5.8787    0.0000 O   0  0  0  0  0  0  0  0  0  0  0  0
  1  3  1  0  0  0  0 
  2 11  1  0  0  0  0 
  5  6  2  0  0  0  0 
 11 12  2  0  0  0  0 
  1  2  1  0  0  0  0 
 12 13  1  0  0  0  0 
 13 17  2  0  0  0  0 
  6  7  1  0  0  0  0 
 16 14  2  0  0  0  0 
 14 11  1  0  0  0  0 
  1  4  2  0  0  0  0 
  9 15  1  0  0  0  0 
 16 17  1  0  0  0  0 
  7  8  2  0  0  0  0 
  8  9  1  0  0  0  0 
  3  5  1  0  0  0  0 
  9 10  2  0  0  0  0 
 17 18  1  0  0  0  0 
 18 19  1  0  0  0  0 
 19 20  1  0  0  0  0 
 20 16  1  0  0  0  0 
 10  5  1  0  0  0  0 
 20 21  2  0  0  0  0 
M  END