
  CDK    9/16/09,9:46

 32 35  0  0  0  0  0  0  0  0999 V2000
    2.0899   -7.2763    0.0000 C   0  0  0  0  0  0  0  0  0  0  0  0
    2.0881   -8.1061    0.0000 C   0  0  0  0  0  0  0  0  0  0  0  0
    2.8031   -8.5178    0.0000 C   0  0  0  0  0  0  0  0  0  0  0  0
    3.5194   -8.1055    0.0000 C   0  0  0  0  0  0  0  0  0  0  0  0
    3.5187   -7.2743    0.0000 C   0  0  0  0  0  0  0  0  0  0  0  0
    2.8001   -6.8650    0.0000 C   0  0  0  0  0  0  0  0  0  0  0  0
    4.2292   -6.8591    0.0000 C   0  0  0  0  0  0  0  0  0  0  0  0
    4.9874   -7.1898    0.0000 N   0  0  0  0  0  0  0  0  0  0  0  0
    5.5338   -6.5758    0.0000 N   0  0  0  0  0  0  0  0  0  0  0  0
    5.1173   -5.8657    0.0000 C   0  0  0  0  0  0  0  0  0  0  0  0
    4.3119   -6.0395    0.0000 C   0  0  0  0  0  0  0  0  0  0  0  0
    3.6977   -5.4889    0.0000 C   0  0  0  0  0  0  0  0  0  0  0  0
    5.4480   -5.1075    0.0000 C   0  0  0  0  0  0  0  0  0  0  0  0
    4.9601   -4.4442    0.0000 O   0  0  0  0  0  0  0  0  0  0  0  0
    6.5996   -4.2678    0.0000 N   0  0  0  0  0  0  0  0  0  0  0  0
    7.4244   -4.1805    0.0000 C   0  0  0  0  0  0  0  0  0  0  0  0
    7.7557   -3.4393    0.0000 C   0  0  0  0  0  0  0  0  0  0  0  0
    7.2725   -2.7674    0.0000 C   0  0  0  0  0  0  0  0  0  0  0  0
    6.4523   -2.8511    0.0000 C   0  0  0  0  0  0  0  0  0  0  0  0
    6.1151   -3.6087    0.0000 C   0  0  0  0  0  0  0  0  0  0  0  0
    5.1610   -7.9957    0.0000 C   0  0  0  0  0  0  0  0  0  0  0  0
    4.5510   -8.5511    0.0000 C   0  0  0  0  0  0  0  0  0  0  0  0
    4.7245   -9.3570    0.0000 C   0  0  0  0  0  0  0  0  0  0  0  0
    5.5122   -9.6073    0.0000 C   0  0  0  0  0  0  0  0  0  0  0  0
    6.1222   -9.0560    0.0000 C   0  0  0  0  0  0  0  0  0  0  0  0
    5.9445   -8.2502    0.0000 C   0  0  0  0  0  0  0  0  0  0  0  0
    6.5545   -7.6947    0.0000 Cl  0  0  0  0  0  0  0  0  0  0  0  0
    5.6858  -10.4173    0.0000 Cl  0  0  0  0  0  0  0  0  0  0  0  0
    1.3741   -8.5155    0.0000 Cl  0  0  0  0  0  0  0  0  0  0  0  0
    2.7943   -6.0390    0.0000 C   0  0  0  0  0  0  0  0  0  0  0  0
    3.5117   -8.9262    0.0000 C   0  0  0  0  0  0  0  0  0  0  0  0
    6.2687   -5.0235    0.0000 N   0  0  0  0  0  0  0  0  0  0  0  0
  3  4  2  0  0  0  0 
 15 16  1  0  0  0  0 
  4  5  1  0  0  0  0 
  2  3  1  0  0  0  0 
  8  9  1  0  0  0  0 
  9 10  2  0  0  0  0 
 15 20  1  0  0  0  0 
 16 17  1  0  0  0  0 
 17 18  1  0  0  0  0 
 18 19  1  0  0  0  0 
 19 20  1  0  0  0  0 
 10 11  1  0  0  0  0 
 11  7  2  0  0  0  0 
 21 22  2  0  0  0  0 
  5  7  1  0  0  0  0 
 22 23  1  0  0  0  0 
  5  6  2  0  0  0  0 
 23 24  2  0  0  0  0 
 11 12  1  0  0  0  0 
 24 25  1  0  0  0  0 
  6  1  1  0  0  0  0 
 25 26  2  0  0  0  0 
 26 21  1  0  0  0  0 
  8 21  1  0  0  0  0 
 10 13  1  0  0  0  0 
 26 27  1  0  0  0  0 
  7  8  1  0  0  0  0 
 24 28  1  0  0  0  0 
  2 29  1  0  0  0  0 
  1  2  2  0  0  0  0 
  6 30  1  0  0  0  0 
 13 14  2  0  0  0  0 
  4 31  1  0  0  0  0 
 32 15  1  0  0  0  0 
 13 32  1  0  0  0  0 
M  END