
          11280715362D 1   1.00000     0.00000     0

 26 28  0     0  0            999 V2000
    4.3250   -6.7792    0.0000 C   0  0  0  0  0  0           0  0  0
    3.8042   -6.4792    0.0000 C   0  0  3  0  0  0           0  0  0
    4.3250   -7.3792    0.0000 C   0  0  0  0  0  0           0  0  0
    3.8042   -7.6792    0.0000 O   0  0  0  0  0  0           0  0  0
    3.2792   -7.3875    0.0000 C   0  0  3  0  0  0           0  0  0
    3.2792   -6.7792    0.0000 C   0  0  3  0  0  0           0  0  0
    4.8417   -6.4792    0.0000 C   0  0  0  0  0  0           0  0  0
    2.7542   -6.4792    0.0000 C   0  0  0  0  0  0           0  0  0
    6.4042   -7.3625    0.0000 C   0  0  0  0  0  0           0  0  0
    6.9250   -7.0500    0.0000 C   0  0  0  0  0  0           0  0  0
    9.0042   -7.0125    0.0000 C   0  0  0  0  0  0           0  0  0
    9.5292   -7.3042    0.0000 C   0  0  0  0  0  0           0  0  0
    3.8042   -5.8750    0.0000 C   0  0  0  0  0  0           0  0  0
    2.7542   -5.8750    0.0000 C   0  0  0  0  0  0           0  0  0
    3.2917   -5.5750    0.0000 C   0  0  0  0  0  0           0  0  0
    4.8417   -7.6792    0.0000 C   0  0  0  0  0  0           0  0  0
    5.3667   -6.7792    0.0000 C   0  0  0  0  0  0           0  0  0
    5.3667   -7.3792    0.0000 C   0  0  0  0  0  0           0  0  0
    4.8292   -5.8792    0.0000 O   0  0  0  0  0  0           0  0  0
    5.8917   -7.6667    0.0000 C   0  0  0  0  0  0           0  0  0
    2.7167   -7.1875    0.0000 C   0  0  0  0  0  0           0  0  0
    3.0792   -7.9542    0.0000 C   0  0  0  0  0  0           0  0  0
    7.4417   -6.7375    0.0000 C   0  0  0  0  0  0           0  0  0
    8.4792   -6.7167    0.0000 C   0  0  0  0  0  0           0  0  0
    3.3042   -4.9750    0.0000 C   0  0  0  0  0  0           0  0  0
    7.9667   -7.0292    0.0000 C   0  0  0  0  0  0           0  0  0
  2  1  1  0     0  0
  3  1  1  0     0  0
  4  3  1  0     0  0
  5  4  1  0     0  0
  6  2  1  0     0  0
  7  1  2  0     0  0
  8  6  1  0     0  0
  9 20  1  0     0  0
 10  9  3  0     0  0
 11 24  1  0     0  0
 12 11  3  0     0  0
 13  2  1  0     0  0
 14 15  2  0     0  0
 15 13  1  0     0  0
 16  3  2  0     0  0
 17  7  1  0     0  0
 18 17  2  0     0  0
 19  7  1  0     0  0
 20 18  1  0     0  0
 21  5  1  0     0  0
 22  5  1  0     0  0
 23 10  1  0     0  0
 24 26  1  0     0  0
 25 15  1  0     0  0
 26 23  1  0     0  0
  5  6  1  0     0  0
 18 16  1  0     0  0
 14  8  1  0     0  0
M  END