
          11280715272D 1   1.00000     0.00000     0

 29 31  0     0  0            999 V2000
    1.2792    0.8333    0.0000 N   0  0  0  0  0  0           0  0  0
    0.4667    0.9125    0.0000 C   0  0  0  0  0  0           0  0  0
    1.4542    0.0208    0.0000 C   0  0  0  0  0  0           0  0  0
    0.7417   -0.3917    0.0000 S   0  0  0  0  0  0           0  0  0
    0.1250    0.1708    0.0000 C   0  0  0  0  0  0           0  0  0
    5.7625   -1.6250    0.0000 C   0  0  0  0  0  0           0  0  0
    7.9042   -0.3667    0.0000 C   0  0  0  0  0  0           0  0  0
    7.1917   -1.6167    0.0000 C   0  0  0  0  0  0           0  0  0
    7.9042   -1.1917    0.0000 C   0  0  0  0  0  0           0  0  0
    2.1667   -0.3917    0.0000 C   0  0  0  0  0  0           0  0  0
    5.0375   -1.2167    0.0000 N   0  0  0  0  0  0           0  0  0
    6.4667   -1.2042    0.0000 C   0  0  0  0  0  0           0  0  0
    2.1667   -1.2167    0.0000 C   0  0  0  0  0  0           0  0  0
    7.1917    0.0458    0.0000 O   0  0  0  0  0  0           0  0  0
    5.7750   -2.4542    0.0000 O   0  0  0  0  0  0           0  0  0
    4.3167   -1.6417    0.0000 C   0  0  0  0  0  0           0  0  0
    0.0542    1.6458    0.0000 C   0  0  3  0  0  0           0  0  0
    2.8875   -1.6417    0.0000 C   0  0  0  0  0  0           0  0  0
    3.6042   -1.2292    0.0000 C   0  0  0  0  0  0           0  0  0
    8.6167    0.0458    0.0000 O   0  0  0  0  0  0           0  0  0
    7.1917   -2.4417    0.0000 C   0  0  0  0  0  0           0  0  0
    8.6292   -1.6042    0.0000 C   0  0  0  0  0  0           0  0  0
    3.6042   -2.8792    0.0000 C   0  0  0  0  0  0           0  0  0
    4.3167   -2.4667    0.0000 C   0  0  0  0  0  0           0  0  0
    2.8875   -2.4667    0.0000 C   0  0  0  0  0  0           0  0  0
   -0.7750    1.6500    0.0000 C   0  0  0  0  0  0           0  0  0
    0.4750    2.3583    0.0000 C   0  0  0  0  0  0           0  0  0
    7.9042   -2.8542    0.0000 C   0  0  0  0  0  0           0  0  0
    8.6375   -2.4292    0.0000 C   0  0  0  0  0  0           0  0  0
  2  1  1  0     0  0
  3  1  2  0     0  0
  4  3  1  0     0  0
  5  2  2  0     0  0
  6 11  1  0     0  0
  7  9  1  0     0  0
  8 12  1  0     0  0
  9  8  1  0     0  0
 10  3  1  0     0  0
 11 16  1  0     0  0
 12  6  1  0     0  0
 13 10  2  0     0  0
 14  7  2  0     0  0
 15  6  2  0     0  0
 16 19  2  0     0  0
 17  2  1  0     0  0
 18 13  1  0     0  0
 19 18  1  0     0  0
 20  7  1  0     0  0
 21  8  2  0     0  0
 22  9  2  0     0  0
 23 25  1  0     0  0
 24 23  2  0     0  0
 25 18  2  0     0  0
 26 17  1  0     0  0
 27 17  1  0     0  0
 28 21  1  0     0  0
 29 28  2  0     0  0
  4  5  1  0     0  0
 24 16  1  0     0  0
 29 22  1  0     0  0
M  END