
          11280715172D 1   1.00000     0.00000     0

 41 45  0     0  0            999 V2000
   -1.9583    1.3958    0.0000 C   0  0  0  0  0  0           0  0  0
   -2.7083    1.0583    0.0000 N   0  0  3  0  0  0           0  0  0
   -3.2625    1.6708    0.0000 N   0  0  0  0  0  0           0  0  0
   -2.0458    2.2208    0.0000 C   0  0  0  0  0  0           0  0  0
   -2.8500    2.3958    0.0000 C   0  0  0  0  0  0           0  0  0
   -1.2375    0.9833    0.0000 N   0  0  0  0  0  0           0  0  0
   -0.5250    1.4000    0.0000 C   0  0  0  0  0  0           0  0  0
    0.9042    1.4083    0.0000 C   0  0  0  0  0  0           0  0  0
    2.3292    1.4125    0.0000 C   0  0  0  0  0  0           0  0  0
    2.3167    2.2333    0.0000 C   0  0  0  0  0  0           0  0  0
    0.1875    0.9875    0.0000 N   0  0  0  0  0  0           0  0  0
    0.8917    2.2250    0.0000 C   0  0  0  0  0  0           0  0  0
    1.6167    0.9958    0.0000 C   0  0  0  0  0  0           0  0  0
    1.6042    2.6458    0.0000 C   0  0  0  0  0  0           0  0  0
   -2.8833    0.2583    0.0000 C   0  0  0  0  0  0           0  0  0
   -3.1958    3.1458    0.0000 C   0  0  3  0  0  0           0  0  0
    5.1792    2.2500    0.0000 N   0  0  3  0  0  0           0  0  0
   -0.5333    2.2250    0.0000 O   0  0  0  0  0  0           0  0  0
    6.6125    1.4250    0.0000 O   0  0  0  0  0  0           0  0  0
   -2.2625   -0.2917    0.0000 C   0  0  0  0  0  0           0  0  0
   -3.6583    0.0000    0.0000 C   0  0  0  0  0  0           0  0  0
    3.0375    2.6500    0.0000 O   0  0  0  0  0  0           0  0  0
    1.6042    3.4708    0.0000 O   0  0  0  0  0  0           0  0  0
   -3.8333   -0.8042    0.0000 C   0  0  0  0  0  0           0  0  0
   -2.4333   -1.1000    0.0000 C   0  0  0  0  0  0           0  0  0
   -3.2208   -1.3542    0.0000 C   0  0  0  0  0  0           0  0  0
    4.4667    2.6583    0.0000 C   0  0  0  0  0  0           0  0  0
    3.7542    2.2458    0.0000 C   0  0  0  0  0  0           0  0  0
    3.0417    1.0083    0.0000 C   0  0  0  0  0  0           0  0  0
    5.1792    1.4208    0.0000 C   0  0  0  0  0  0           0  0  0
    5.8917    2.6708    0.0000 C   0  0  0  0  0  0           0  0  0
    1.6250    0.1708    0.0000 C   0  0  0  0  0  0           0  0  0
   -2.7083    3.8083    0.0000 C   0  0  0  0  0  0           0  0  0
   -4.0208    3.2333    0.0000 C   0  0  0  0  0  0           0  0  0
   -3.6083    3.8583    0.0000 C   0  0  0  0  0  0           0  0  0
    6.6042    2.2583    0.0000 C   0  0  0  0  0  0           0  0  0
    5.8917    1.0125    0.0000 C   0  0  0  0  0  0           0  0  0
   -3.3875   -2.1667    0.0000 C   0  0  0  0  0  0           0  0  0
    0.8792    3.8750    0.0000 C   0  0  0  0  0  0           0  0  0
    3.0542    0.1875    0.0000 C   0  0  0  0  0  0           0  0  0
    2.3417   -0.2375    0.0000 C   0  0  0  0  0  0           0  0  0
  2  1  1  0     0  0
  3  2  1  0     0  0
  4  1  2  0     0  0
  5  4  1  0     0  0
  6  1  1  0     0  0
  7  6  1  0     0  0
  8 11  1  0     0  0
  9 13  1  0     0  0
 10  9  2  0     0  0
 11  7  1  0     0  0
 12  8  1  0     0  0
 13  8  2  0     0  0
 14 12  2  0     0  0
 15  2  1  0     0  0
 16  5  1  0     0  0
 17 27  1  0     0  0
 18  7  2  0     0  0
 19 36  1  0     0  0
 20 15  1  0     0  0
 21 15  2  0     0  0
 22 10  1  0     0  0
 23 14  1  0     0  0
 24 21  1  0     0  0
 25 20  2  0     0  0
 26 24  2  0     0  0
 27 28  1  0     0  0
 28 22  1  0     0  0
 29  9  1  0     0  0
 30 17  1  0     0  0
 31 17  1  0     0  0
 32 13  1  0     0  0
 33 16  1  0     0  0
 34 16  1  0     0  0
 35 16  1  0     0  0
 36 31  1  0     0  0
 37 30  1  0     0  0
 38 26  1  0     0  0
 39 23  1  0     0  0
 40 41  1  0     0  0
 41 32  2  0     0  0
  3  5  2  0     0  0
 25 26  1  0     0  0
 10 14  1  0     0  0
 29 40  2  0     0  0
 19 37  1  0     0  0
M  END