
  CDK    9/16/09,10:4

 22 23  0  0  0  0  0  0  0  0999 V2000
   -1.4208   -7.6250    0.0000 C   0  0  0  0  0  0  0  0  0  0  0  0
   -0.7064   -7.2125    0.0000 N   0  0  0  0  0  0  0  0  0  0  0  0
   -2.1353   -7.2125    0.0000 N   0  0  0  0  0  0  0  0  0  0  0  0
   -1.4208   -8.4500    0.0000 S   0  0  0  0  0  0  0  0  0  0  0  0
   -2.8498   -7.6250    0.0000 C   0  0  0  0  0  0  0  0  0  0  0  0
   -3.5637   -7.2094    0.0000 C   0  0  0  0  0  0  0  0  0  0  0  0
   -4.2777   -7.6212    0.0000 C   0  0  0  0  0  0  0  0  0  0  0  0
   -4.2781   -8.4471    0.0000 C   0  0  0  0  0  0  0  0  0  0  0  0
   -3.5586   -8.8594    0.0000 C   0  0  0  0  0  0  0  0  0  0  0  0
   -2.8476   -8.4452    0.0000 C   0  0  0  0  0  0  0  0  0  0  0  0
    0.0081   -7.6250    0.0000 C   0  0  0  0  0  0  0  0  0  0  0  0
    0.0056   -8.4511    0.0000 C   0  0  0  0  0  0  0  0  0  0  0  0
    0.7192   -8.8635    0.0000 C   0  0  0  0  0  0  0  0  0  0  0  0
    1.4346   -8.4509    0.0000 C   0  0  0  0  0  0  0  0  0  0  0  0
    1.4320   -7.6217    0.0000 C   0  0  0  0  0  0  0  0  0  0  0  0
    0.7178   -7.2130    0.0000 C   0  0  0  0  0  0  0  0  0  0  0  0
    2.1497   -8.8625    0.0000 C   0  0  0  0  0  0  0  0  0  0  0  0
    2.1477   -7.2030    0.0000 N   0  0  0  0  0  0  0  0  0  0  0  0
    2.1448   -6.3780    0.0000 O   0  0  0  0  0  0  0  0  0  0  0  0
    2.8636   -7.6129    0.0000 O   0  0  0  0  0  0  0  0  0  0  0  0
   -4.9920   -8.8605    0.0000 C   0  0  0  0  0  0  0  0  0  0  0  0
   -3.5557   -9.6844    0.0000 Cl  0  0  0  0  0  0  0  0  0  0  0  0
  2 11  1  0  0  0  0 
  5  6  2  0  0  0  0 
 11 12  2  0  0  0  0 
  1  2  1  0  0  0  0 
 12 13  1  0  0  0  0 
  6  7  1  0  0  0  0 
 13 14  2  0  0  0  0 
  1  4  2  0  0  0  0 
 14 15  1  0  0  0  0 
  7  8  2  0  0  0  0 
 15 16  2  0  0  0  0 
 16 11  1  0  0  0  0 
 14 17  1  0  0  0  0 
  8  9  1  0  0  0  0 
  3  5  1  0  0  0  0 
  9 10  2  0  0  0  0 
 18 19  2  0  0  0  0 
 18 20  1  0  0  0  0 
 15 18  1  0  0  0  0 
 10  5  1  0  0  0  0 
  8 21  1  0  0  0  0 
  1  3  1  0  0  0  0 
  9 22  1  0  0  0  0 
M  CHG  1  18   1
M  CHG  1  20  -1
M  END