
  SciTegic10311316212D

 25 28  0  0  0  0            999 V2000
   -1.4637  -12.8315    0.0000 C   0  0
   -1.4626  -13.6511    0.0000 C   0  0
   -0.7591  -14.0600    0.0000 C   0  0
   -0.7573  -12.4227    0.0000 C   0  0
   -0.0462  -12.8279    0.0000 C   0  0
   -0.0465  -13.6465    0.0000 C   0  0
    0.7343  -13.8993    0.0000 S   0  0
    1.2153  -13.2368    0.0000 C   0  0
    0.7339  -12.5748    0.0000 C   0  0
   -2.1706  -14.0582    0.0000 N   0  0
   -2.9102  -13.7253    0.0000 C   0  0
   -3.4607  -14.3321    0.0000 N   0  0
   -3.0516  -15.0402    0.0000 N   0  0
   -2.2496  -14.8708    0.0000 C   0  0
   -1.6501  -15.4148    0.0000 C   0  0
   -1.8165  -16.2148    0.0000 C   0  0
   -1.2175  -16.7618    0.0000 C   0  0
   -0.4357  -16.5100    0.0000 C   0  0
   -0.2661  -15.7062    0.0000 C   0  0
   -0.8721  -15.1626    0.0000 C   0  0
   -3.0793  -12.9258    0.0000 S   0  0
    2.0305  -13.2344    0.0000 C   0  0
    2.4393  -13.9420    0.0000 O   0  0
    2.4388  -12.5265    0.0000 O   0  0
    0.1766  -17.0565    0.0000 Br  0  0
  1  2  2  0
  2  3  1  0
  3  6  2  0
  5  4  2  0
  4  1  1  0
  5  6  1  0
  6  7  1  0
  7  8  1  0
  8  9  2  0
  9  5  1  0
 10 11  1  0
 11 12  2  0
 12 13  1  0
 13 14  2  0
 14 10  1  0
  2 10  1  0
 15 16  2  0
 16 17  1  0
 17 18  2  0
 18 19  1  0
 19 20  2  0
 20 15  1  0
 14 15  1  0
 11 21  1  0
 22 23  1  0
 22 24  2  0
  8 22  1  0
 18 25  1  0
M  END