
          11280715072D 1   1.00000     0.00000     0

 45 49  0     0  0            999 V2000
    6.9167    1.3458    0.0000 C   0  0  0  0  0  0           0  0  0
    2.6875   -4.4542    0.0000 C   0  0  0  0  0  0           0  0  0
    6.9292    0.5208    0.0000 C   0  0  0  0  0  0           0  0  0
    2.6500   -3.6125    0.0000 C   0  0  0  0  0  0           0  0  0
    1.9875   -4.8792    0.0000 C   0  0  0  0  0  0           0  0  0
    7.6292    1.7583    0.0000 C   0  0  0  0  0  0           0  0  0
    8.3542    1.3500    0.0000 C   0  0  0  0  0  0           0  0  0
    1.2542   -4.4917    0.0000 C   0  0  0  0  0  0           0  0  0
    1.9417   -3.2375    0.0000 C   0  0  0  0  0  0           0  0  0
    7.6417    0.1083    0.0000 C   0  0  0  0  0  0           0  0  0
    8.3542    0.5250    0.0000 C   0  0  0  0  0  0           0  0  0
    1.2417   -3.6667    0.0000 C   0  0  0  0  0  0           0  0  0
    5.5125   -1.9667    0.0000 C   0  0  0  0  0  0           0  0  0
    6.2167    0.1083    0.0000 O   0  0  0  0  0  0           0  0  0
    3.3667   -3.2042    0.0000 O   0  0  0  0  0  0           0  0  0
    6.2250   -2.3750    0.0000 C   0  0  0  0  0  0           0  0  0
    3.4167   -4.8417    0.0000 C   0  0  0  0  0  0           0  0  0
    6.2042    1.7458    0.0000 C   0  0  0  0  0  0           0  0  0
    0.4500   -3.4292    0.0000 O   0  0  0  0  0  0           0  0  0
    9.1375    0.2708    0.0000 O   0  0  0  0  0  0           0  0  0
    0.4792   -4.7625    0.0000 C   0  0  0  0  0  0           0  0  0
    9.1375    1.6083    0.0000 C   0  0  0  0  0  0           0  0  0
    5.5042   -1.1292    0.0000 C   0  0  0  0  0  0           0  0  0
    9.6167    0.9375    0.0000 C   0  0  0  0  0  0           0  0  0
   -0.0208   -4.1042    0.0000 C   0  0  0  0  0  0           0  0  0
    4.7917   -2.3792    0.0000 C   0  0  0  0  0  0           0  0  0
    6.2167   -0.7167    0.0000 C   0  0  0  0  0  0           0  0  0
    6.2292   -3.2000    0.0000 O   0  0  0  0  0  0           0  0  0
    3.4417   -5.6667    0.0000 O   0  0  0  0  0  0           0  0  0
    6.1917    2.5708    0.0000 O   0  0  0  0  0  0           0  0  0
    7.6292    2.5875    0.0000 O   0  0  0  0  0  0           0  0  0
    2.0042   -5.7125    0.0000 O   0  0  0  0  0  0           0  0  0
    4.7917   -0.7250    0.0000 C   0  0  0  0  0  0           0  0  0
    7.6417   -0.7167    0.0000 O   0  0  0  0  0  0           0  0  0
    1.9250   -2.4125    0.0000 O   0  0  0  0  0  0           0  0  0
    3.3667   -2.3792    0.0000 C   0  0  0  0  0  0           0  0  0
    4.0792   -1.9667    0.0000 C   0  0  0  0  0  0           0  0  0
    6.9417   -1.9625    0.0000 O   0  0  0  0  0  0           0  0  0
    4.0792   -1.1375    0.0000 C   0  0  0  0  0  0           0  0  0
    4.1167   -4.4042    0.0000 C   0  0  0  0  0  0           0  0  0
    5.4917    1.3333    0.0000 C   0  0  0  0  0  0           0  0  0
    2.7375   -6.1042    0.0000 C   0  0  0  0  0  0           0  0  0
    6.9125    2.9958    0.0000 C   0  0  0  0  0  0           0  0  0
    1.2000   -2.0167    0.0000 C   0  0  0  0  0  0           0  0  0
    8.3542   -1.1292    0.0000 C   0  0  0  0  0  0           0  0  0
  2  4  1  0     0  0
  3  1  1  0     0  0
  4 15  1  0     0  0
  5  2  2  0     0  0
  6  1  2  0     0  0
  7  6  1  0     0  0
  8 12  2  0     0  0
  9  4  2  0     0  0
 10  3  2  0     0  0
 11  7  2  0     0  0
 12  9  1  0     0  0
 13 23  1  0     0  0
 14  3  1  0     0  0
 15 36  1  0     0  0
 16 13  1  0     0  0
 17  2  1  0     0  0
 18  1  1  0     0  0
 19 12  1  0     0  0
 20 11  1  0     0  0
 21  8  1  0     0  0
 22  7  1  0     0  0
 23 27  1  0     0  0
 24 22  2  0     0  0
 25 19  1  0     0  0
 26 13  2  0     0  0
 27 14  1  0     0  0
 28 16  2  0     0  0
 29 17  2  0     0  0
 30 18  2  0     0  0
 31  6  1  0     0  0
 32  5  1  0     0  0
 33 23  2  0     0  0
 34 10  1  0     0  0
 35  9  1  0     0  0
 36 37  1  0     0  0
 37 39  2  0     0  0
 38 16  1  0     0  0
 39 33  1  0     0  0
 40 17  1  0     0  0
 41 18  1  0     0  0
 42 32  1  0     0  0
 43 31  1  0     0  0
 44 35  1  0     0  0
 45 34  1  0     0  0
 11 10  1  0     0  0
 24 20  1  0     0  0
 37 26  1  0     0  0
  8  5  1  0     0  0
 21 25  2  0     0  0
M  END