
  SciTegic04021211102D

 21 23  0  0  0  0            999 V2000
    8.6336  -13.6384    0.0000 N   0  0
    8.6325  -14.4664    0.0000 C   0  0
    9.3478  -14.8796    0.0000 N   0  0
    9.3460  -13.2254    0.0000 C   0  0
   10.0619  -13.6348    0.0000 C   0  0
   10.0621  -14.4618    0.0000 C   0  0
   10.8487  -14.7171    0.0000 N   0  0
   11.3347  -14.0479    0.0000 C   0  0
   10.8483  -13.3790    0.0000 N   0  0
    9.3435  -12.3999    0.0000 N   0  0
   10.0573  -11.9849    0.0000 C   0  0
   10.7713  -12.3980    0.0000 C   0  0
   11.4845  -11.9838    0.0000 C   0  0
   10.0510  -11.1634    0.0000 C   0  0
    7.9172  -14.8786    0.0000 N   0  0
   10.7612  -10.7468    0.0000 C   0  0
   11.4767  -11.1588    0.0000 C   0  0
   10.7579   -9.9213    0.0000 O   0  0
   11.4713   -9.5056    0.0000 C   0  0
   12.2019  -12.3923    0.0000 O   0  0
   12.2068  -13.2178    0.0000 C   0  0
  4 10  1  0
  5  6  1  0
 10 11  1  0
 11 12  2  0
  2  3  1  0
 12 13  1  0
 13 17  2  0
  3  6  2  0
 16 14  2  0
 14 11  1  0
  1  2  2  0
  2 15  1  0
 16 17  1  0
  5  4  2  0
  6  7  1  0
  7  8  1  0
 16 18  1  0
  8  9  2  0
 18 19  1  0
  9  5  1  0
 13 20  1  0
  4  1  1  0
 20 21  1  0
M  END