
          11280715432D 1   1.00000     0.00000     0

 22 23  0     1  0            999 V2000
   -1.0958   -0.2750    0.0000 C   0  0  0  0  0  0           0  0  0
   -0.2708   -0.2792    0.0000 N   0  0  0  0  0  0           0  0  0
   -0.0083    0.5083    0.0000 C   0  0  0  0  0  0           0  0  0
   -1.5875   -0.9375    0.0000 N   0  0  0  0  0  0           0  0  0
   -1.3458    0.5083    0.0000 N   0  0  0  0  0  0           0  0  0
   -0.6750    0.9958    0.0000 C   0  0  0  0  0  0           0  0  0
    1.4167    0.3500    0.0000 C   0  0  0  0  0  0           0  0  0
   -2.4125   -0.8542    0.0000 C   0  0  0  0  0  0           0  0  0
    0.7500    0.8458    0.0000 C   0  0  0  0  0  0           0  0  0
    1.3292   -0.4667    0.0000 C   0  0  0  0  0  0           0  0  0
    2.1667    0.6833    0.0000 C   0  0  0  0  0  0           0  0  0
    2.8417    0.1958    0.0000 C   0  0  0  0  0  0           0  0  0
    2.0042   -0.9542    0.0000 C   0  0  0  0  0  0           0  0  0
   -2.9000   -1.5250    0.0000 O   0  0  0  0  0  0           0  0  0
    2.7542   -0.6250    0.0000 C   0  0  0  0  0  0           0  0  0
   -2.7458   -0.1042    0.0000 C   0  0  1  0  0  0           0  0  0
   -3.5708   -0.0167    0.0000 N   0  0  0  0  0  0           0  0  0
   -0.6750    1.8208    0.0000 C   0  0  0  0  0  0           0  0  0
    2.2542    1.5083    0.0000 C   0  0  0  0  0  0           0  0  0
    0.5667   -0.8042    0.0000 C   0  0  0  0  0  0           0  0  0
    3.4167   -1.1167    0.0000 C   0  0  0  0  0  0           0  0  0
   -2.2583    0.5708    0.0000 C   0  0  0  0  0  0           0  0  0
  2  1  1  0     0  0
  3  2  1  0     0  0
  4  1  1  0     0  0
  5  1  2  0     0  0
  6  5  1  0     0  0
  7  9  1  0     0  0
  8  4  1  0     0  0
  9  3  1  0     0  0
 10  7  2  0     0  0
 11  7  1  0     0  0
 12 11  2  0     0  0
 13 10  1  0     0  0
 14  8  2  0     0  0
 15 12  1  0     0  0
 16  8  1  0     0  0
 17 16  1  0     0  0
 18  6  1  0     0  0
 19 11  1  0     0  0
 20 10  1  0     0  0
 21 15  1  0     0  0
 16 22  1  1     0  0
  6  3  2  0     0  0
 15 13  2  0     0  0
M  END