
  CDK    9/16/09,10:6

 44 45  0  0  0  0  0  0  0  0999 V2000
   -2.3548  -23.4924    0.0000 C   0  0  0  0  0  0  0  0  0  0  0  0
   -2.3548  -24.3208    0.0000 C   0  0  0  0  0  0  0  0  0  0  0  0
   -1.6386  -24.7350    0.0000 C   0  0  0  0  0  0  0  0  0  0  0  0
   -0.9226  -24.3208    0.0000 C   0  0  0  0  0  0  0  0  0  0  0  0
   -0.9226  -23.4924    0.0000 C   0  0  0  0  0  0  0  0  0  0  0  0
   -1.6386  -23.0783    0.0000 C   0  0  0  0  0  0  0  0  0  0  0  0
   -1.6399  -22.2546    0.0000 O   0  0  0  0  0  0  0  0  0  0  0  0
   -1.6399  -25.5587    0.0000 O   0  0  0  0  0  0  0  0  0  0  0  0
   -3.0674  -23.0846    0.0000 C   0  0  0  0  0  0  0  0  0  0  0  0
   -3.0693  -22.2609    0.0000 C   0  0  0  0  0  0  0  0  0  0  0  0
   -3.7865  -21.8486    0.0000 C   0  0  0  0  0  0  0  0  0  0  0  0
   -2.3588  -21.8450    0.0000 C   0  0  0  0  0  0  0  0  0  0  0  0
   -2.3608  -21.0213    0.0000 C   0  0  0  0  0  0  0  0  0  0  0  0
   -1.6457  -20.6100    0.0000 C   0  0  0  0  0  0  0  0  0  0  0  0
   -3.0733  -20.6135    0.0000 O   0  0  0  0  0  0  0  0  0  0  0  0
   -1.6477  -19.7863    0.0000 C   0  0  0  0  0  0  0  0  0  0  0  0
   -0.9372  -19.3703    0.0000 C   0  0  0  0  0  0  0  0  0  0  0  0
   -2.3648  -19.3738    0.0000 C   0  0  0  0  0  0  0  0  0  0  0  0
   -0.2200  -19.7828    0.0000 C   0  0  0  0  0  0  0  0  0  0  0  0
    0.4904  -19.3669    0.0000 C   0  0  0  0  0  0  0  0  0  0  0  0
   -0.2180  -20.6065    0.0000 C   0  0  0  0  0  0  0  0  0  0  0  0
    1.3124  -19.3645    0.0000 C   0  0  0  0  0  0  0  0  0  0  0  0
    2.0244  -19.7787    0.0000 C   0  0  0  0  0  0  0  0  0  0  0  0
    1.5244  -18.5693    0.0000 O   0  0  0  0  0  0  0  0  0  0  0  0
    0.2761  -18.5723    0.0000 O   0  0  0  0  0  0  0  0  0  0  0  0
   -0.5196  -18.3622    0.0000 C   0  0  0  0  0  0  0  0  0  0  0  0
   -0.7385  -17.5629    0.0000 O   0  0  0  0  0  0  0  0  0  0  0  0
   -1.1011  -18.9468    0.0000 N   0  0  0  0  0  0  0  0  0  0  0  0
    2.3242  -18.3570    0.0000 C   0  0  0  0  0  0  0  0  0  0  0  0
    2.0223  -20.6024    0.0000 C   0  0  0  0  0  0  0  0  0  0  0  0
    1.3051  -21.0102    0.0000 C   0  0  0  0  0  0  0  0  0  0  0  0
    1.3031  -21.8339    0.0000 C   0  0  0  0  0  0  0  0  0  0  0  0
    2.0182  -22.2499    0.0000 C   0  0  0  0  0  0  0  0  0  0  0  0
   -0.2060  -23.0836    0.0000 N   0  0  0  0  0  0  0  0  0  0  0  0
   -0.2051  -22.2599    0.0000 C   0  0  0  0  0  0  0  0  0  0  0  0
   -0.9208  -21.8450    0.0000 O   0  0  0  0  0  0  0  0  0  0  0  0
   -3.7973  -21.0351    0.0000 C   0  0  0  0  0  0  0  0  0  0  0  0
   -3.0805  -24.7395    0.0000 N   0  0  0  0  0  0  0  0  0  0  0  0
   -0.9401  -21.0073    0.0000 O   0  0  0  0  0  0  0  0  0  0  0  0
   -3.8058  -24.3203    0.0000 C   0  0  0  0  0  0  0  0  0  0  0  0
   -4.5313  -24.7389    0.0000 C   0  0  0  0  0  0  0  0  0  0  0  0
   -5.2567  -24.3197    0.0000 N   0  0  0  0  0  0  0  0  0  0  0  0
   -5.9823  -24.7384    0.0000 C   0  0  0  0  0  0  0  0  0  0  0  0
   -5.2563  -23.4820    0.0000 C   0  0  0  0  0  0  0  0  0  0  0  0
 20 22  1  0  0  0  0 
 10 11  1  1  0  0  0 
 22 23  1  0  0  0  0 
  4  5  2  0  0  0  0 
 22 24  1  1  0  0  0 
 10 12  1  0  0  0  0 
 20 25  1  6  0  0  0 
  5  6  1  0  0  0  0 
 25 26  1  0  0  0  0 
 12 13  1  0  0  0  0 
 26 27  2  0  0  0  0 
 26 28  1  0  0  0  0 
 13 14  1  0  0  0  0 
 24 29  1  0  0  0  0 
  6  7  2  0  0  0  0 
 23 30  2  0  0  0  0 
 13 15  1  6  0  0  0 
 30 31  1  0  0  0  0 
  1  2  2  0  0  0  0 
 31 32  2  0  0  0  0 
 14 16  1  0  0  0  0 
 32 33  1  0  0  0  0 
  3  8  2  0  0  0  0 
  5 34  1  0  0  0  0 
 16 17  1  0  0  0  0 
 34 35  1  0  0  0  0 
  1  6  1  0  0  0  0 
 35 36  2  0  0  0  0 
 35 32  1  0  0  0  0 
 16 18  1  1  0  0  0 
 15 37  1  0  0  0  0 
  1  9  1  0  0  0  0 
  2 38  1  0  0  0  0 
 17 19  2  0  0  0  0 
 14 39  2  0  0  0  0 
  2  3  1  0  0  0  0 
 38 40  1  0  0  0  0 
 19 20  1  0  0  0  0 
 40 41  1  0  0  0  0 
  9 10  1  0  0  0  0 
 41 42  1  0  0  0  0 
 19 21  1  0  0  0  0 
 42 43  1  0  0  0  0 
  3  4  1  0  0  0  0 
 42 44  1  0  0  0  0 
M  END