
          11280715252D 1   1.00000     0.00000     0

 27 29  0     0  0            999 V2000
   -0.6958   -1.4125    0.0000 N   0  0  3  0  0  0           0  0  0
   -0.1375   -0.8042    0.0000 C   0  0  0  0  0  0           0  0  0
   -1.3583   -0.2625    0.0000 N   0  0  0  0  0  0           0  0  0
   -0.5500   -0.0875    0.0000 C   0  0  0  0  0  0           0  0  0
   -1.4458   -1.0792    0.0000 C   0  0  0  0  0  0           0  0  0
    1.6042   -2.4750    0.0000 C   0  0  0  0  0  0           0  0  0
    0.9375   -1.9875    0.0000 O   0  0  0  0  0  0           0  0  0
    2.4292   -2.4750    0.0000 C   0  0  0  0  0  0           0  0  0
    0.2667   -2.4667    0.0000 C   0  0  0  0  0  0           0  0  0
    2.8292   -1.7625    0.0000 C   0  0  0  0  0  0           0  0  0
    1.3500   -3.2542    0.0000 C   0  0  0  0  0  0           0  0  0
    2.4167   -1.0500    0.0000 C   0  0  0  0  0  0           0  0  0
   -0.5208   -2.2167    0.0000 C   0  0  0  0  0  0           0  0  0
    0.5250   -3.2542    0.0000 C   0  0  0  0  0  0           0  0  0
   -0.2208    0.6708    0.0000 Cl  0  0  0  0  0  0           0  0  0
    1.5917   -1.0542    0.0000 O   0  0  0  0  0  0           0  0  0
    0.6792   -0.8917    0.0000 C   0  0  0  0  0  0           0  0  0
    2.8292   -0.3292    0.0000 O   0  0  0  0  0  0           0  0  0
   -2.1583   -1.4917    0.0000 C   0  0  0  0  0  0           0  0  0
    2.8375   -3.1875    0.0000 C   0  0  0  0  0  0           0  0  0
    3.6542   -1.7625    0.0000 C   0  0  0  0  0  0           0  0  0
    1.1667   -0.2167    0.0000 O   0  0  0  0  0  0           0  0  0
   -2.8708   -1.0875    0.0000 C   0  0  0  0  0  0           0  0  0
   -3.5875   -1.5000    0.0000 C   0  0  0  0  0  0           0  0  0
    4.0667   -2.4750    0.0000 C   0  0  0  0  0  0           0  0  0
    3.6542   -3.1875    0.0000 C   0  0  0  0  0  0           0  0  0
   -4.3000   -1.0917    0.0000 C   0  0  0  0  0  0           0  0  0
  2  1  1  0     0  0
  3  5  2  0     0  0
  4  2  2  0     0  0
  5  1  1  0     0  0
  6  7  1  0     0  0
  7  9  1  0     0  0
  8  6  1  0     0  0
  9 13  1  0     0  0
 10  8  2  0     0  0
 11 14  1  0     0  0
 12 10  1  0     0  0
 13  1  1  0     0  0
 14  9  2  0     0  0
 15  4  1  0     0  0
 16 12  2  0     0  0
 17  2  1  0     0  0
 18 12  1  0     0  0
 19  5  1  0     0  0
 20  8  1  0     0  0
 21 10  1  0     0  0
 22 17  1  0     0  0
 23 19  1  0     0  0
 24 23  1  0     0  0
 25 26  1  0     0  0
 26 20  2  0     0  0
 27 24  1  0     0  0
  4  3  1  0     0  0
 11  6  2  0     0  0
 21 25  2  0     0  0
M  END