
          11280714452D 1   1.00000     0.00000     0

 38 42  0     0  0            999 V2000
    1.0167   -6.0042    0.0000 C   0  0  0  0  0  0           0  0  0
    0.9292   -6.8167    0.0000 N   0  0  0  0  0  0           0  0  0
    0.2625   -5.6667    0.0000 N   0  0  3  0  0  0           0  0  0
    8.5542   -2.2542    0.0000 N   0  0  0  0  0  0           0  0  0
    8.1500   -3.5167    0.0000 C   0  0  0  0  0  0           0  0  0
    7.7292   -2.2542    0.0000 N   0  0  0  0  0  0           0  0  0
    8.8125   -3.0292    0.0000 N   0  0  0  0  0  0           0  0  0
    7.4375   -5.5792    0.0000 C   0  0  0  0  0  0           0  0  0
    7.4750   -3.0417    0.0000 N   0  0  0  0  0  0           0  0  0
   -0.2875   -6.2792    0.0000 C   0  0  0  0  0  0           0  0  0
    0.1250   -6.9917    0.0000 C   0  0  0  0  0  0           0  0  0
    7.4375   -4.7542    0.0000 C   0  0  0  0  0  0           0  0  0
    8.1500   -4.3417    0.0000 C   0  0  0  0  0  0           0  0  0
    6.7250   -5.9917    0.0000 C   0  0  0  0  0  0           0  0  0
    6.0125   -5.5792    0.0000 C   0  0  0  0  0  0           0  0  0
    8.1500   -5.9917    0.0000 C   0  0  0  0  0  0           0  0  0
    5.2917   -5.9917    0.0000 C   0  0  0  0  0  0           0  0  0
    1.7292   -5.5917    0.0000 C   0  0  0  0  0  0           0  0  0
    8.8667   -4.7542    0.0000 C   0  0  0  0  0  0           0  0  0
    6.7250   -6.8167    0.0000 O   0  0  0  0  0  0           0  0  0
    8.8667   -5.5792    0.0000 C   0  0  0  0  0  0           0  0  0
    2.4417   -5.9917    0.0000 O   0  0  0  0  0  0           0  0  0
    4.5792   -5.5792    0.0000 C   0  0  0  0  0  0           0  0  0
    0.0875   -4.8667    0.0000 C   0  0  0  0  0  0           0  0  0
    3.1625   -5.5792    0.0000 C   0  0  0  0  0  0           0  0  0
    3.8750   -5.9917    0.0000 C   0  0  0  0  0  0           0  0  0
    8.1500   -6.8167    0.0000 O   0  0  0  0  0  0           0  0  0
   -1.1125   -6.2792    0.0000 C   0  0  0  0  0  0           0  0  0
   -0.2833   -7.7042    0.0000 C   0  0  0  0  0  0           0  0  0
    1.4875   -4.5542    0.0000 O   0  0  0  0  0  0           0  0  0
    3.8750   -4.3417    0.0000 C   0  0  0  0  0  0           0  0  0
    4.5875   -4.7542    0.0000 C   0  0  0  0  0  0           0  0  0
    3.1625   -4.7542    0.0000 C   0  0  0  0  0  0           0  0  0
    0.7000   -4.3042    0.0000 C   0  0  0  0  0  0           0  0  0
    2.0917   -4.0042    0.0000 C   0  0  0  0  0  0           0  0  0
   -1.5208   -6.9917    0.0000 C   0  0  0  0  0  0           0  0  0
   -1.1000   -7.7042    0.0000 C   0  0  0  0  0  0           0  0  0
    2.8792   -4.2542    0.0000 C   0  0  0  0  0  0           0  0  0
  2  1  2  0     0  0
  3  1  1  0     0  0
  4  7  2  0     0  0
  5 13  1  0     0  0
  6  9  1  0     0  0
  7  5  1  0     0  0
  8 14  1  0     0  0
  9  5  2  0     0  0
 10  3  1  0     0  0
 11  2  1  0     0  0
 12  8  2  0     0  0
 13 12  1  0     0  0
 14 15  1  0     0  0
 15 17  2  0     0  0
 16  8  1  0     0  0
 17 23  1  0     0  0
 18  1  1  0     0  0
 19 21  1  0     0  0
 20 14  2  0     0  0
 21 16  2  0     0  0
 22 18  1  0     0  0
 23 26  2  0     0  0
 24  3  1  0     0  0
 25 22  1  0     0  0
 26 25  1  0     0  0
 27 16  1  0     0  0
 28 10  1  0     0  0
 29 11  1  0     0  0
 30 34  1  0     0  0
 31 33  1  0     0  0
 32 31  2  0     0  0
 33 25  2  0     0  0
 34 24  1  0     0  0
 35 30  1  0     0  0
 36 28  2  0     0  0
 37 29  2  0     0  0
 38 35  1  0     0  0
 10 11  2  0     0  0
 37 36  1  0     0  0
 32 23  1  0     0  0
 13 19  2  0     0  0
  6  4  1  0     0  0
M  END