
          03140815512D 1   1.00000     0.00000     0

 17 18  0     0  0            999 V2000
   -0.3542   -9.4417    0.0000 N   0  0  3  0  0  0           0  0  0
   -0.3542  -10.2667    0.0000 C   0  0  0  0  0  0           0  0  0
    0.3579  -10.6750    0.0000 C   0  0  0  0  0  0           0  0  0
    1.0699  -10.2667    0.0000 O   0  0  0  0  0  0           0  0  0
    1.0699   -9.4417    0.0000 C   0  0  0  0  0  0           0  0  0
    0.3579   -9.0250    0.0000 C   0  0  0  0  0  0           0  0  0
   -1.0698   -9.0313    0.0000 C   0  0  0  0  0  0           0  0  0
   -1.0723   -8.2063    0.0000 O   0  0  0  0  0  0           0  0  0
   -1.7831   -9.4459    0.0000 C   0  0  0  0  0  0           0  0  0
   -2.4988   -9.0354    0.0000 O   0  0  0  0  0  0           0  0  0
   -3.2120   -9.4500    0.0000 C   0  0  0  0  0  0           0  0  0
   -3.9270   -9.0363    0.0000 C   0  0  0  0  0  0           0  0  0
   -4.6398   -9.4502    0.0000 C   0  0  0  0  0  0           0  0  0
   -4.6378  -10.2761    0.0000 C   0  0  0  0  0  0           0  0  0
   -3.9171  -10.6863    0.0000 C   0  0  0  0  0  0           0  0  0
   -3.2073  -10.2701    0.0000 C   0  0  0  0  0  0           0  0  0
   -2.4902  -10.6780    0.0000 F   0  0  0  0  0  0           0  0  0
  1  6  1  0     0  0
  7  9  1  0     0  0
  2  3  1  0     0  0
  9 10  1  0     0  0
  3  4  1  0     0  0
 10 11  1  0     0  0
  4  5  1  0     0  0
 11 12  2  0     0  0
  5  6  1  0     0  0
 12 13  1  0     0  0
 13 14  2  0     0  0
  1  7  1  0     0  0
 14 15  1  0     0  0
  1  2  1  0     0  0
 15 16  2  0     0  0
 16 11  1  0     0  0
  7  8  2  0     0  0
 16 17  1  0     0  0
M  END