
  SciTegic02011310462D

 35 38  0  0  0  0            999 V2000
   24.5508  -23.2667    0.0000 C   0  0
   25.2746  -22.8660    0.0000 C   0  0
   25.2886  -22.0407    0.0000 N   0  0
   24.5794  -21.6150    0.0000 C   0  0
   23.8546  -22.0207    0.0000 C   0  0
   23.8443  -22.8448    0.0000 C   0  0
   24.5918  -20.7901    0.0000 C   0  0
   23.8836  -20.3669    0.0000 N   0  0
   23.8961  -19.5420    0.0000 O   0  0
   23.1456  -21.5990    0.0000 O   0  0
   16.6941  -22.1461    0.0000 C   0  0
   16.6956  -22.9735    0.0000 C   0  0
   17.4118  -23.3840    0.0000 C   0  0
   17.4046  -21.7311    0.0000 C   0  0
   18.1213  -22.1378    0.0000 C   0  0
   18.1274  -22.9662    0.0000 C   0  0
   18.8439  -23.3730    0.0000 C   0  0
   19.5589  -22.9557    0.0000 N   0  0
   19.5529  -22.1273    0.0000 C   0  0
   18.8318  -21.7160    0.0000 C   0  0
   18.8481  -24.1957    0.0000 C   0  0
   18.1346  -24.6119    0.0000 C   0  0
   18.1391  -25.4361    0.0000 C   0  0
   18.8566  -25.8451    0.0000 C   0  0
   19.5709  -25.4239    0.0000 C   0  0
   19.5628  -24.6011    0.0000 C   0  0
   15.9782  -21.7361    0.0000 O   0  0
   15.9753  -20.9111    0.0000 C   0  0
   15.9822  -23.3877    0.0000 O   0  0
   15.2667  -22.9769    0.0000 C   0  0
   20.2839  -23.3496    0.0000 C   0  0
   20.9874  -22.9188    0.0000 C   0  0
   21.7123  -23.3126    0.0000 C   0  0
   22.4158  -22.8817    0.0000 C   0  0
   23.1408  -23.2757    0.0000 C   0  0
  1  2  2  0
  2  3  1  0
  3  4  2  0
  4  5  1  0
  5  6  2  0
  6  1  1  0
  4  7  1  0
  7  8  2  0
  8  9  1  0
  5 10  1  0
 11 12  2  0
 12 13  1  0
 13 16  2  0
 15 14  2  0
 14 11  1  0
 15 16  1  0
 15 20  1  0
 16 17  1  0
 17 18  1  0
 18 19  1  0
 19 20  1  0
 21 22  2  0
 22 23  1  0
 23 24  2  0
 24 25  1  0
 25 26  2  0
 26 21  1  0
 17 21  1  0
 11 27  1  0
 27 28  1  0
 12 29  1  0
 29 30  1  0
 18 31  1  0
 31 32  1  0
 32 33  1  0
 33 34  1  0
 34 35  1  0
 35  6  1  0
M  END