
  SciTegic01161211252D

 28 31  0  0  0  0            999 V2000
   -4.0145   -2.3729    0.0000 C   0  0
   -1.4149   -2.9238    0.0000 N   0  0
   -0.7003   -3.3378    0.0000 C   0  0
   -0.7015   -4.1636    0.0000 O   0  0
    0.0155   -2.9259    0.0000 C   0  0
    0.7284   -3.3407    0.0000 C   0  0
    1.4438   -2.9295    0.0000 N   0  0
    1.4454   -2.1028    0.0000 C   0  0
    0.7257   -1.6890    0.0000 C   0  0
    0.0134   -2.1025    0.0000 C   0  0
    2.1606   -1.6900    0.0000 O   0  0
    2.8758   -2.1029    0.0000 C   0  0
    2.8709   -2.9291    0.0000 C   0  0
    3.5852   -3.3420    0.0000 C   0  0
    4.3014   -2.9291    0.0000 C   0  0
    4.2989   -2.0989    0.0000 C   0  0
    3.5840   -1.6898    0.0000 C   0  0
   -2.0985   -3.3872    0.0000 C   0  0
   -2.8896   -3.1437    0.0000 C   0  0
   -1.3561   -2.1004    0.0000 C   0  0
   -3.1944   -2.3775    0.0000 N   0  0
   -1.9629   -1.5383    0.0000 C   0  0
   -2.7801   -1.6645    0.0000 C   0  0
   -4.5912   -1.7897    0.0000 C   0  0
   -5.1744   -2.3664    0.0000 C   0  0
   -4.5977   -2.9496    0.0000 C   0  0
    5.0079   -1.6829    0.0000 C   0  0
    5.7217   -1.2675    0.0000 N   0  0
  7  8  2  0
 14 15  2  0
  3  5  1  0
 15 16  1  0
  8  9  1  0
 16 17  2  0
 17 12  1  0
  2 18  1  0
  9 10  2  0
 18 19  1  0
 10  5  1  0
  2 20  1  0
  5  6  2  0
 19 21  1  0
  8 11  1  0
 20 22  1  0
  3  4  2  0
 21 23  1  0
 22 23  1  0
 21  1  1  0
  1 24  1  0
 11 12  1  0
  6  7  1  0
 12 13  2  0
 24 25  1  0
 25 26  1  0
 26  1  1  0
  2  3  1  0
 13 14  1  0
 27 28  3  0
 16 27  1  0
M  END