
          11280715142D 1   1.00000     0.00000     0

 12 13  0     0  0            999 V2000
   11.2667   -4.5292    0.0000 C   0  0  3  0  0  0           0  0  0
   10.6000   -4.0417    0.0000 C   0  0  0  0  0  0           0  0  0
   11.8667   -5.0917    0.0000 C   0  0  3  0  0  0           0  0  0
    9.9292   -4.5250    0.0000 O   0  0  0  0  0  0           0  0  0
   10.5917   -3.2167    0.0000 O   0  0  0  0  0  0           0  0  0
   10.1875   -5.3125    0.0000 C   0  0  0  0  0  0           0  0  0
   11.0125   -5.3125    0.0000 C   0  0  0  0  0  0           0  0  0
   11.6292   -3.7792    0.0000 C   0  0  0  0  0  0           0  0  0
   12.5917   -4.7042    0.0000 C   0  0  0  0  0  0           0  0  0
   12.4417   -3.8917    0.0000 C   0  0  0  0  0  0           0  0  0
   11.9792   -4.2792    0.0000 C   0  0  0  0  0  0           0  0  0
   11.7542   -5.9125    0.0000 C   0  0  0  0  0  0           0  0  0
  2  1  1  0     0  0
  3  1  1  0     0  0
  4  2  1  0     0  0
  5  2  2  0     0  0
  6  7  1  0     0  0
  7  1  1  0     0  0
  8  1  1  0     0  0
  9  3  1  0     0  0
 10  8  1  0     0  0
 11  3  1  0     0  0
 12  3  1  0     0  0
  9 10  1  0     0  0
  6  4  1  0     0  0
M  END