
  SciTegic10041313322D

 55 56  0  0  0  0            999 V2000
    3.1369   -1.0248    0.0000 C   0  0  1  0  0  0
    7.3403   -2.2913    0.0000 C   0  0  2  0  0  0
    8.2902   -2.0871    0.0000 C   0  0  1  0  0  0
    8.8901   -2.3913    0.0000 C   0  0
    4.0867   -0.8165    0.0000 C   0  0  1  0  0  0
    2.8162   -0.2625    0.0000 C   0  0  2  0  0  0
   10.2523   -2.8162    0.0000 S   0  0
    4.6783   -1.1165    0.0000 C   0  0  1  0  0  0
    6.7655   -3.7785    0.0000 S   0  0
    2.5995   -2.6787    0.0000 S   0  0
    4.8533   -2.1538    0.0000 S   0  0
    8.8359   -3.9118    0.0000 S   0  0
    1.7247   -1.4914    0.0000 S   0  0
    7.0279   -1.5289    0.0000 C   0  0  1  0  0  0
    9.1233   -0.2167    0.0000 S   0  0
    1.9746    0.9831    0.0000 S   0  0
    9.4400   -2.9994    0.0000 O   0  0
    8.5776   -1.6164    0.0000 O   0  0
    3.4661   -0.5624    0.0000 C   0  0  1  0  0  0
    4.3659   -0.3416    0.0000 O   0  0
    7.6736   -1.8289    0.0000 C   0  0  1  0  0  0
    5.4782   -0.9040    0.0000 O   0  0
    2.8745   -1.9038    0.0000 O   0  0
    7.0404   -3.0036    0.0000 O   0  0
    8.3610   -3.2369    0.0000 O   0  0
    4.1534   -1.7122    0.0000 O   0  0
    2.2288   -0.8415    0.0000 O   0  0
    3.4619    0.2625    0.0000 C   0  0
    7.6653   -1.0040    0.0000 C   0  0
    8.3777   -0.5874    0.0000 O   0  0
    2.7412    0.6707    0.0000 O   0  0
   11.0355   -2.5662    0.0000 O   0  0
    6.4905   -4.5534    0.0000 O   0  0
    2.3163   -3.4536    0.0000 O   0  0
    9.3108   -4.5867    0.0000 O   0  0
    1.2165   -2.1413    0.0000 O   0  0
    5.5532   -2.5912    0.0000 O   0  0
    1.1873    1.2373    0.0000 O   0  0
    9.8649    0.1458    0.0000 O   0  0
   10.5023   -3.6035    0.0000 O   0  0
    9.9899   -2.0371    0.0000 O   0  0
    2.3746   -1.9913    0.0000 O   0  0
    3.3744   -2.9495    0.0000 O   0  0
    5.2907   -1.4539    0.0000 O   0  0
    8.1610   -4.3909    0.0000 O   0  0
    9.5024   -3.4286    0.0000 O   0  0
    4.4117   -2.8537    0.0000 O   0  0
    1.8164   -2.4038    0.0000 O   0  0
    1.0665   -0.9790    0.0000 O   0  0
    5.9864   -3.5036    0.0000 O   0  0
    7.5403   -4.0493    0.0000 O   0  0
    2.2371    1.7705    0.0000 O   0  0
    1.7164    0.1958    0.0000 O   0  0
    8.7609    0.5207    0.0000 O   0  0
    9.4774   -0.9623    0.0000 O   0  0
  2 14  1  0
  3  2  1  0
  4 18  1  0
  5  1  1  0
  6  1  1  0
  7 17  1  0
  8  5  1  0
  9 24  1  0
 10 23  1  0
 11 26  1  0
 12 25  1  0
 13 27  1  0
 14 22  1  6
 15 30  1  0
 16 31  1  0
  4 17  1  0
 18 21  1  0
 19  6  1  0
 20 19  1  0
 21 14  1  0
  8 22  1  1
  1 23  1  6
  2 24  1  1
  3 25  1  6
  5 26  1  6
  6 27  1  1
 19 28  1  1
 21 29  1  1
 30 29  1  0
 31 28  1  0
 32  7  1  0
 33  9  1  0
 34 10  1  0
 35 12  1  0
 36 13  1  0
 37 11  1  0
 38 16  1  0
 39 15  1  0
 40  7  2  0
 41  7  2  0
 42 13  2  0
 43 10  2  0
 44 11  2  0
 45 12  2  0
 46 12  2  0
 47 11  2  0
 48 10  2  0
 49 13  2  0
 50  9  2  0
 51  9  2  0
 52 16  2  0
 53 16  2  0
 54 15  2  0
 55 15  2  0
 20  8  1  0
  3  4  1  0
M  END