
  SciTegic10121214022D

 34 33  0  0  0  0            999 V2000
   -3.3958  -17.7000    0.0000 C   0  0  2  0  0  0
   -3.3958  -18.5250    0.0000 C   0  0  2  0  0  0
   -2.6838  -18.9333    0.0000 C   0  0  1  0  0  0
   -1.9718  -18.5250    0.0000 C   0  0  2  0  0  0
   -1.9718  -17.7000    0.0000 C   0  0
   -2.6838  -17.2833    0.0000 N   0  0
   -1.2579  -18.9385    0.0000 N   0  0
   -2.6838  -19.7583    0.0000 O   0  0
   -4.1097  -18.9385    0.0000 O   0  0
   -4.1115  -17.2896    0.0000 C   0  0
   -4.1139  -16.4646    0.0000 O   0  0
   -0.5429  -18.5271    0.0000 C   0  0
    0.1710  -18.9406    0.0000 C   0  0
   -0.5417  -17.7021    0.0000 O   0  0
   -3.3983  -20.1708    0.0000 C   0  0  1  0  0  0
   -3.3983  -20.9958    0.0000 C   0  0
   -4.1128  -19.7583    0.0000 C   0  0
   -4.1128  -21.4083    0.0000 O   0  0
   -2.6838  -21.4083    0.0000 N   0  0
   -2.6838  -22.2333    0.0000 C   0  0  2  0  0  0
   -1.9693  -22.6458    0.0000 C   0  0
   -3.3983  -22.6458    0.0000 C   0  0
   -1.9693  -23.4708    0.0000 O   0  0
   -1.2549  -22.2333    0.0000 N   0  0
   -0.5404  -22.6458    0.0000 C   0  0  1  0  0  0
    0.1741  -22.2333    0.0000 C   0  0
    0.8885  -22.6458    0.0000 O   0  0
    0.1741  -21.4083    0.0000 O   0  0
   -0.5404  -23.4708    0.0000 C   0  0
   -1.2549  -23.8833    0.0000 C   0  0
   -1.2549  -24.7083    0.0000 C   0  0
   -1.9693  -25.1208    0.0000 O   0  0
   -0.5404  -25.1208    0.0000 O   0  0
    2.6313  -18.0312    0.0000 Cl  0  0
  3  8  1  1
 15 17  1  1
  1  6  1  0
 16 18  2  0
  2  9  1  6
 16 19  1  0
  2  3  1  0
 19 20  1  0
  1 10  1  1
 20 21  1  0
  3  4  1  0
 20 22  1  6
 10 11  1  0
 21 23  2  0
  4  5  1  0
 21 24  1  0
  7 12  1  0
 24 25  1  0
  5  6  1  0
 25 26  1  1
 12 13  1  0
 26 27  1  0
 26 28  2  0
 12 14  2  0
 25 29  1  0
  4  7  1  6
 29 30  1  0
  8 15  1  0
 30 31  1  0
  1  2  1  0
 31 32  2  0
 15 16  1  0
 31 33  1  0
M  END