
  SciTegic10311316212D

 27 29  0  0  0  0            999 V2000
   27.4612  -28.3581    0.0000 C   0  0
   27.4600  -29.1777    0.0000 C   0  0
   28.1681  -29.5867    0.0000 C   0  0
   28.8777  -29.1772    0.0000 C   0  0
   28.8749  -28.3546    0.0000 C   0  0
   28.1663  -27.9493    0.0000 C   0  0
   28.1580  -27.1312    0.0000 N   0  0
   28.8177  -26.6489    0.0000 C   0  0
   28.5628  -25.8724    0.0000 N   0  0
   27.7456  -25.8749    0.0000 N   0  0
   27.4955  -26.6528    0.0000 C   0  0
   29.5956  -26.8991    0.0000 S   0  0
   30.2013  -26.3504    0.0000 C   0  0
   30.9792  -26.6006    0.0000 C   0  0
   31.5849  -26.0520    0.0000 O   0  0
   31.1515  -27.3994    0.0000 O   0  0
   26.7186  -26.9117    0.0000 C   0  0
   26.1097  -26.3650    0.0000 C   0  0
   25.3339  -26.6194    0.0000 C   0  0
   25.1658  -27.4200    0.0000 C   0  0
   25.7797  -27.9658    0.0000 C   0  0
   26.5531  -27.7086    0.0000 C   0  0
   28.1679  -30.4038    0.0000 Cl  0  0
   29.5861  -29.5847    0.0000 Cl  0  0
   24.3863  -27.6774    0.0000 N   0  3
   24.2199  -28.4775    0.0000 O   0  0
   23.7766  -27.1333    0.0000 O   0  5
  1  2  2  0
  2  3  1  0
  3  4  2  0
  4  5  1  0
  5  6  2  0
  6  1  1  0
  7  8  1  0
  8  9  2  0
  9 10  1  0
 10 11  2  0
 11  7  1  0
  6  7  1  0
  8 12  1  0
 12 13  1  0
 13 14  1  0
 14 15  1  0
 14 16  2  0
 17 18  2  0
 18 19  1  0
 19 20  2  0
 20 21  1  0
 21 22  2  0
 22 17  1  0
 11 17  1  0
  3 23  1  0
  4 24  1  0
 25 26  2  0
 25 27  1  0
 20 25  1  0
M  CHG  2  25   1  27  -1
M  END