
          11280715012D 1   1.00000     0.00000     0

 29 31  0     0  0            999 V2000
    0.7042   -2.9625    0.0000 C   0  0  3  0  0  0           0  0  0
    7.2500   -4.2042    0.0000 N   0  0  0  0  0  0           0  0  0
    3.5667   -2.9625    0.0000 C   0  0  0  0  0  0           0  0  0
    8.4750   -3.6542    0.0000 N   0  0  0  0  0  0           0  0  0
    8.0542   -4.3792    0.0000 C   0  0  0  0  0  0           0  0  0
    7.1625   -3.3792    0.0000 C   0  0  0  0  0  0           0  0  0
    0.7042   -2.1292    0.0000 C   0  0  0  0  0  0           0  0  0
    3.5667   -2.1292    0.0000 N   0  0  0  0  0  0           0  0  0
   -0.0125   -3.3792    0.0000 C   0  0  0  0  0  0           0  0  0
   -0.0125   -4.1917    0.0000 N   0  0  0  0  0  0           0  0  0
    7.9167   -3.0417    0.0000 C   0  0  0  0  0  0           0  0  0
    2.8542   -3.3792    0.0000 N   0  0  0  0  0  0           0  0  0
    4.2917   -3.3792    0.0000 N   0  0  0  0  0  0           0  0  0
    1.4250   -1.7167    0.0000 C   0  0  0  0  0  0           0  0  0
   -0.0125   -1.7250    0.0000 C   0  0  0  0  0  0           0  0  0
    1.4167   -3.3792    0.0000 C   0  0  0  0  0  0           0  0  0
    0.7000   -3.7792    0.0000 O   0  0  0  0  0  0           0  0  0
    0.7042   -0.4750    0.0000 C   0  0  0  0  0  0           0  0  0
    2.1292   -2.9625    0.0000 C   0  0  0  0  0  0           0  0  0
   -0.0125   -0.8917    0.0000 C   0  0  0  0  0  0           0  0  0
    1.4250   -0.8917    0.0000 C   0  0  0  0  0  0           0  0  0
    0.7125    0.3500    0.0000 F   0  0  0  0  0  0           0  0  0
    6.4417   -2.9625    0.0000 C   0  0  0  0  0  0           0  0  0
   -0.7333   -4.6167    0.0000 C   0  0  0  0  0  0           0  0  0
   -0.7333   -2.9542    0.0000 C   0  0  0  0  0  0           0  0  0
    5.0042   -2.9625    0.0000 C   0  0  0  0  0  0           0  0  0
    5.7292   -3.3792    0.0000 C   0  0  0  0  0  0           0  0  0
   -1.4500   -4.2042    0.0000 C   0  0  0  0  0  0           0  0  0
   -1.4500   -3.3750    0.0000 C   0  0  0  0  0  0           0  0  0
  2  6  1  0     0  0
  3 12  2  0     0  0
  4 11  1  0     0  0
  5  2  2  0     0  0
  6 23  1  0     0  0
  7  1  1  0     0  0
  8  3  1  0     0  0
  9  1  1  0     0  0
 10  9  1  0     0  0
 11  6  2  0     0  0
 12 19  1  0     0  0
 13  3  1  0     0  0
 14  7  2  0     0  0
 15  7  1  0     0  0
 16  1  1  0     0  0
 17  1  1  0     0  0
 18 20  1  0     0  0
 19 16  1  0     0  0
 20 15  2  0     0  0
 21 14  1  0     0  0
 22 18  1  0     0  0
 23 27  1  0     0  0
 24 10  2  0     0  0
 25  9  2  0     0  0
 26 13  1  0     0  0
 27 26  1  0     0  0
 28 29  2  0     0  0
 29 25  1  0     0  0
 18 21  2  0     0  0
 28 24  1  0     0  0
  5  4  1  0     0  0
M  END