
  SciTegic11281211512D

 25 28  0  0  0  0            999 V2000
   -0.1083   -3.4788    0.0000 C   0  0
    0.6749   -3.7413    0.0000 N   0  0
    1.1666   -3.0788    0.0000 C   0  0
    0.6916   -2.4039    0.0000 N   0  0
   -0.0958   -2.6539    0.0000 C   0  0
   -0.7832   -3.9537    0.0000 C   0  0
   -1.5623   -3.6788    0.0000 S   0  0
    1.9915   -3.0996    0.0000 C   0  0
    7.3659   -2.4664    0.0000 C   0  0
    8.0908   -2.0665    0.0000 C   0  0
    7.3784   -1.6415    0.0000 C   0  0
   -0.7957   -4.7745    0.0000 C   0  0
    6.9409   -3.1746    0.0000 N   0  0
   -2.0581   -4.3412    0.0000 C   0  0
   -1.5831   -5.0161    0.0000 C   0  0
    2.4164   -2.3914    0.0000 C   0  0
    2.3914   -3.8163    0.0000 C   0  0
    4.4662   -3.1371    0.0000 O   0  0
    5.6910   -3.8663    0.0000 C   0  0  1  0  0  0
    3.6413   -3.1246    0.0000 C   0  0
    6.1160   -3.1621    0.0000 C   0  0
    4.8661   -3.8538    0.0000 C   0  0
    3.2163   -3.8288    0.0000 C   0  0
    3.2413   -2.4039    0.0000 C   0  0
    6.0993   -4.5912    0.0000 O   0  0
  2  1  1  0
  3  2  2  0
  4  5  1  0
  5  1  2  0
  6  1  1  0
  7  6  1  0
  8  3  1  0
  9 13  1  0
 10  9  1  0
 11  9  1  0
 12  6  2  0
 13 21  1  0
 14  7  1  0
 15 12  1  0
 16  8  2  0
 17  8  1  0
 18 20  1  0
 19 22  1  0
 20 23  1  0
 21 19  1  0
 22 18  1  0
 23 17  2  0
 24 16  1  0
 19 25  1  6
  4  3  1  0
 15 14  2  0
 24 20  2  0
 11 10  1  0
M  END