
  SciTegic02271217242D

 40 43  0  0  0  0            999 V2000
   -0.6056    0.3167    0.0000 C   0  0
   -0.6068   -0.5107    0.0000 C   0  0
    0.1081   -0.9235    0.0000 C   0  0
    0.8245   -0.5102    0.0000 C   0  0
    0.8216    0.3203    0.0000 C   0  0
    0.1063    0.7295    0.0000 C   0  0
    1.5346    0.7355    0.0000 O   0  0
    2.2506    0.3257    0.0000 C   0  0
    2.2503   -0.4969    0.0000 C   0  0
    2.9655   -0.9067    0.0000 C   0  0
    3.6794   -0.4914    0.0000 C   0  0
    3.6736    0.3378    0.0000 C   0  0
    2.9579    0.7438    0.0000 C   0  0
    4.3960   -0.9003    0.0000 Cl  0  0
    2.9505    1.5688    0.0000 N   0  0
    3.6612    1.9877    0.0000 S   0  0
    4.3794    1.5816    0.0000 C   0  0
    3.2417    2.7083    0.0000 O   0  0
    4.0667    2.7083    0.0000 O   0  0
    4.3838    0.7573    0.0000 C   0  0
    5.1011    0.3512    0.0000 C   0  0
    5.8128    0.7702    0.0000 C   0  0
    5.8027    1.5994    0.0000 C   0  0
    5.0849    2.0017    0.0000 C   0  0
    6.5315    0.3651    0.0000 Cl  0  0
   -1.3215   -0.9226    0.0000 C   0  0
   -2.0357   -0.5095    0.0000 N   0  0
   -1.3222   -1.7476    0.0000 O   0  0
   -2.0350    0.3155    0.0000 C   0  0
   -2.7492    0.7285    0.0000 C   0  0
   -3.4640    0.3166    0.0000 N   0  0
    6.5120    2.0208    0.0000 C   0  0
    7.2316    1.6172    0.0000 F   0  0
    6.5017    2.8457    0.0000 F   0  0
    7.2208    2.4375    0.0000 F   0  0
   -4.2147    0.6515    0.0000 C   0  0
   -4.7672    0.0388    0.0000 C   0  0
   -4.3552   -0.6760    0.0000 C   0  0
   -3.5482   -0.5050    0.0000 C   0  0
    2.9682   -1.7316    0.0000 C   0  0
  4  5  1  0
 17 20  2  0
  9 10  1  0
 20 21  1  0
  2  3  1  0
 21 22  2  0
 10 11  2  0
 22 23  1  0
  5  6  2  0
 23 24  2  0
 24 17  1  0
 11 12  1  0
 22 25  1  0
  6  1  1  0
  2 26  1  0
 12 13  2  0
 26 27  1  0
 13  8  1  0
 26 28  2  0
  1  2  2  0
 27 29  1  0
 11 14  1  0
 29 30  1  0
  5  7  1  0
 30 31  1  0
 13 15  1  0
 23 32  1  0
  3  4  2  0
 32 33  1  0
 15 16  1  0
 32 34  1  0
  7  8  1  0
 32 35  1  0
 31 36  1  0
 16 17  1  0
 16 18  2  0
  8  9  2  0
 36 37  1  0
 37 38  1  0
 38 39  1  0
 39 31  1  0
 16 19  2  0
 10 40  1  0
M  END