
  SciTegic04151115542D

 25 26  0  0  0  0            999 V2000
    4.1444   -6.8125    0.0000 C   0  0
    4.1432   -7.6398    0.0000 C   0  0
    4.8581   -8.0527    0.0000 C   0  0
    5.5745   -7.6394    0.0000 C   0  0
    5.5716   -6.8088    0.0000 C   0  0
    4.8563   -6.3997    0.0000 C   0  0
    4.8579   -8.8777    0.0000 F   0  0
    3.4284   -8.0518    0.0000 Cl  0  0
    6.2846   -6.3936    0.0000 N   0  0
    7.0006   -6.8034    0.0000 C   0  0
    7.7135   -6.3883    0.0000 C   0  0
    7.0037   -7.6284    0.0000 O   0  0
    8.4295   -6.7981    0.0000 N   0  0
    7.7104   -5.5633    0.0000 O   0  0
    9.1424   -6.3829    0.0000 C   0  0
    9.1393   -5.5579    0.0000 C   0  0
    9.8522   -5.1427    0.0000 C   0  0
   10.5682   -5.5525    0.0000 N   0  0
    9.4333   -4.4250    0.0000 C   0  0
   10.2583   -4.4250    0.0000 C   0  0
   10.5714   -6.3775    0.0000 C   0  0
    9.8584   -6.7927    0.0000 C   0  0
   11.3667   -6.1583    0.0000 C   0  0
   10.9792   -7.0875    0.0000 C   0  0
   11.2812   -5.1373    0.0000 C   0  0
  6  1  1  0
 11 13  1  0
  1  2  2  0
 11 14  2  0
  3  7  1  0
 13 15  1  0
 15 22  1  0
  3  4  2  0
 15 16  1  0
  2  8  1  0
 16 17  1  0
 17 18  1  0
  5  9  1  0
 17 19  1  0
  4  5  1  0
 17 20  1  0
  9 10  1  0
 18 21  1  0
  2  3  1  0
 21 22  1  0
 10 11  1  0
 21 23  1  0
  5  6  2  0
 21 24  1  0
 10 12  2  0
 18 25  1  0
M  END