
  SciTegic10041313202D

 32 33  0  0  1  0            999 V2000
    4.3125   -8.2917    0.0000 C   0  0
    6.4542   -8.7167    0.0000 C   0  0
    5.0250   -8.7125    0.0000 N   0  0
    3.5917   -8.7042    0.0000 N   0  0
    5.7417   -8.3000    0.0000 C   0  0  1  0  0  0
    7.1667   -8.3125    0.0000 N   0  0
    9.4183   -7.8291    0.0000 N   0  0
    8.5917   -8.3125    0.0000 C   0  0
    4.3042   -7.4667    0.0000 O   0  0
    5.7417   -7.4750    0.0000 C   0  0
    6.4500   -9.5417    0.0000 O   0  0
    7.8792   -8.7292    0.0000 C   0  0  2  0  0  0
    6.1542   -6.7542    0.0000 C   0  0
    2.1667   -9.5292    0.0000 O   0  0
    7.8750  -11.5792    0.0000 C   0  0
    8.2792  -12.2917    0.0000 C   0  0
    7.8750  -10.1542    0.0000 O   0  0
    2.8792   -8.2875    0.0000 C   0  0
    3.5917   -9.5292    0.0000 C   0  0
    8.2875  -10.8667    0.0000 C   0  0
    8.2917   -9.4375    0.0000 C   0  0
    2.1667   -8.7042    0.0000 C   0  0
    2.8792   -9.9375    0.0000 C   0  0
    6.9792   -6.7500    0.0000 C   0  0
    5.7375   -6.0417    0.0000 C   0  0
    6.7375   -7.3375    0.0000 C   0  0
    9.1042  -12.2875    0.0000 C   0  0
    7.8750  -13.0042    0.0000 C   0  0
    7.0417  -11.5792    0.0000 C   0  0
    6.6292  -12.2917    0.0000 C   0  0
    7.0417  -13.0042    0.0000 C   0  0
    7.4667   -9.4375    0.0000 H   0  0
  2  5  1  0
  3  1  1  0
  4  1  1  0
  5  3  1  0
  6  2  1  0
  7  8  3  0
  8 12  1  0
  9  1  2  0
  5 10  1  1
 11  2  2  0
 12  6  1  0
 13 10  1  0
 14 23  1  0
 15 20  1  0
 16 15  1  0
 17 21  1  0
 18  4  1  0
 19  4  1  0
 20 17  1  0
 12 21  1  6
 22 18  1  0
 23 19  1  0
 24 13  1  0
 25 13  1  0
 26 13  1  0
 27 16  1  0
 28 16  2  0
 29 15  2  0
 30 29  1  0
 31 30  2  0
 12 32  1  1
 14 22  1  0
 28 31  1  0
M  END