
  CDK    9/16/09,9:57

 29 31  0  0  0  0  0  0  0  0999 V2000
    8.4320    1.0720    0.0000 C   0  0  0  0  0  0  0  0  0  0  0  0
    8.4567    0.2474    0.0000 C   0  0  0  0  0  0  0  0  0  0  0  0
    9.1832   -0.1435    0.0000 N   0  0  0  0  0  0  0  0  0  0  0  0
    9.8850    0.2901    0.0000 C   0  0  0  0  0  0  0  0  0  0  0  0
   10.6115   -0.1008    0.0000 N   0  0  0  0  0  0  0  0  0  0  0  0
    9.8603    1.1148    0.0000 N   0  0  0  0  0  0  0  0  0  0  0  0
   11.3133    0.3329    0.0000 C   0  0  0  0  0  0  0  0  0  0  0  0
   12.0398   -0.0581    0.0000 C   0  0  0  0  0  0  0  0  0  0  0  0
   11.2886    1.1575    0.0000 O   0  0  0  0  0  0  0  0  0  0  0  0
   12.7416    0.3756    0.0000 C   0  0  0  0  0  0  0  0  0  0  0  0
   13.4681   -0.0153    0.0000 C   0  0  0  0  0  0  0  0  0  0  0  0
   13.4885   -0.8383    0.0000 C   0  0  0  0  0  0  0  0  0  0  0  0
   14.2142   -1.2292    0.0000 C   0  0  0  0  0  0  0  0  0  0  0  0
   14.9170   -0.7955    0.0000 C   0  0  0  0  0  0  0  0  0  0  0  0
   14.8895    0.0333    0.0000 C   0  0  0  0  0  0  0  0  0  0  0  0
   14.1634    0.4205    0.0000 C   0  0  0  0  0  0  0  0  0  0  0  0
    7.7056    1.4630    0.0000 C   0  0  0  0  0  0  0  0  0  0  0  0
    7.6809    2.2876    0.0000 C   0  0  0  0  0  0  0  0  0  0  0  0
    8.0953    3.5565    0.0000 C   0  0  0  0  0  0  0  0  0  0  0  0
    7.2703    3.5576    0.0000 N   0  0  0  0  0  0  0  0  0  0  0  0
    7.0125    2.7738    0.0000 C   0  0  0  0  0  0  0  0  0  0  0  0
    8.3469    2.7721    0.0000 N   0  0  0  0  0  0  0  0  0  0  0  0
   12.7169    1.2002    0.0000 C   0  0  0  0  0  0  0  0  0  0  0  0
   13.3695    1.7045    0.0000 N   0  0  0  0  0  0  0  0  0  0  0  0
   13.0912    2.4811    0.0000 C   0  0  0  0  0  0  0  0  0  0  0  0
   12.2665    2.4565    0.0000 C   0  0  0  0  0  0  0  0  0  0  0  0
   12.0353    1.6646    0.0000 S   0  0  0  0  0  0  0  0  0  0  0  0
   14.2384   -2.0539    0.0000 F   0  0  0  0  0  0  0  0  0  0  0  0
   15.6440   -1.1854    0.0000 F   0  0  0  0  0  0  0  0  0  0  0  0
  3  4  1  0  0  0  0 
 14 15  1  0  0  0  0 
  7  8  1  0  0  0  0 
 15 16  2  0  0  0  0 
 16 11  1  0  0  0  0 
  1 17  1  0  0  0  0 
  7  9  2  0  0  0  0 
 17 18  1  0  0  0  0 
 19 20  1  0  0  0  0 
  4  5  1  0  0  0  0 
  8 10  1  0  0  0  0 
  2  3  1  0  0  0  0 
 10 11  1  0  0  0  0 
 20 21  1  0  0  0  0 
 21 18  2  0  0  0  0 
 18 22  1  0  0  0  0 
 22 19  2  0  0  0  0 
 10 23  1  0  0  0  0 
 23 24  2  0  0  0  0 
  4  6  2  0  0  0  0 
 11 12  2  0  0  0  0 
  1  2  1  0  0  0  0 
 12 13  1  0  0  0  0 
 24 25  1  0  0  0  0 
 25 26  2  0  0  0  0 
 26 27  1  0  0  0  0 
 27 23  1  0  0  0  0 
  5  7  1  0  0  0  0 
 13 28  1  0  0  0  0 
 13 14  2  0  0  0  0 
 14 29  1  0  0  0  0 
M  END