
          11280714542D 1   1.00000     0.00000     0

 47 51  0     0  0            999 V2000
    8.6750   -2.1292    0.0000 C   0  0  0  0  0  0           0  0  0
    1.2042   -1.0125    0.0000 N   0  0  3  0  0  0           0  0  0
    9.1167   -2.8250    0.0000 N   0  0  0  0  0  0           0  0  0
    0.3792   -1.0500    0.0000 C   0  0  0  0  0  0           0  0  0
    2.8500   -0.9417    0.0000 N   0  0  3  0  0  0           0  0  0
    9.9417   -2.7917    0.0000 C   0  0  0  0  0  0           0  0  0
    7.8500   -2.1667    0.0000 C   0  0  0  0  0  0           0  0  0
    4.9417   -1.5750    0.0000 C   0  0  3  0  0  0           0  0  0
    5.3792   -2.2750    0.0000 O   0  0  0  0  0  0           0  0  0
    4.1167   -1.6042    0.0000 C   0  0  0  0  0  0           0  0  0
   10.1167   -7.0750    0.0000 C   0  0  0  0  0  0           0  0  0
    5.3250   -0.8417    0.0000 C   0  0  0  0  0  0           0  0  0
    9.0542   -1.4000    0.0000 O   0  0  0  0  0  0           0  0  0
    1.5792   -0.2792    0.0000 C   0  0  0  0  0  0           0  0  0
    1.6417   -1.7125    0.0000 C   0  0  0  0  0  0           0  0  0
   -0.0625   -0.3542    0.0000 C   0  0  0  0  0  0           0  0  0
   10.3792   -3.4875    0.0000 C   0  0  0  0  0  0           0  0  0
   10.5625   -7.7667    0.0000 O   0  0  0  0  0  0           0  0  0
    3.6750   -0.9125    0.0000 C   0  0  0  0  0  0           0  0  0
    7.4042   -1.4667    0.0000 C   0  0  0  0  0  0           0  0  0
    7.4667   -2.9000    0.0000 C   0  0  0  0  0  0           0  0  0
    6.1417   -0.8125    0.0000 C   0  0  0  0  0  0           0  0  0
    4.8792   -0.1500    0.0000 C   0  0  0  0  0  0           0  0  0
    2.4667   -1.6750    0.0000 C   0  0  0  0  0  0           0  0  0
    2.4042   -0.2500    0.0000 C   0  0  0  0  0  0           0  0  0
    6.2042   -2.2375    0.0000 C   0  0  0  0  0  0           0  0  0
    9.2917   -7.1042    0.0000 O   0  0  0  0  0  0           0  0  0
    6.5792   -1.5042    0.0000 C   0  0  0  0  0  0           0  0  0
    6.6417   -2.9292    0.0000 C   0  0  0  0  0  0           0  0  0
    6.5292   -0.0792    0.0000 C   0  0  0  0  0  0           0  0  0
    5.2542    0.5750    0.0000 C   0  0  0  0  0  0           0  0  0
    6.0875    0.6125    0.0000 C   0  0  0  0  0  0           0  0  0
    0.3167    0.3750    0.0000 O   0  0  0  0  0  0           0  0  0
   10.0000   -4.2250    0.0000 O   0  0  0  0  0  0           0  0  0
    0.0000   -1.7875    0.0000 C   0  0  0  0  0  0           0  0  0
   10.3167   -2.0625    0.0000 C   0  0  0  0  0  0           0  0  0
   10.5042   -6.3417    0.0000 C   0  0  0  0  0  0           0  0  0
   -0.8833   -0.3875    0.0000 C   0  0  0  0  0  0           0  0  0
   11.2042   -3.4542    0.0000 C   0  0  0  0  0  0           0  0  0
   10.4417   -4.9167    0.0000 C   0  0  0  0  0  0           0  0  0
    6.4667    1.3500    0.0000 C   0  0  0  0  0  0           0  0  0
   -0.1250    1.0708    0.0000 C   0  0  0  0  0  0           0  0  0
   10.0625   -5.6500    0.0000 C   0  0  0  0  0  0           0  0  0
   -0.8333   -1.8167    0.0000 C   0  0  0  0  0  0           0  0  0
   11.1417   -2.0250    0.0000 C   0  0  0  0  0  0           0  0  0
   11.5875   -2.7250    0.0000 C   0  0  0  0  0  0           0  0  0
   -1.2708   -1.1250    0.0000 C   0  0  0  0  0  0           0  0  0
  2 14  1  0     0  0
  3  1  1  0     0  0
  4  2  1  0     0  0
  5 19  1  0     0  0
  6  3  1  0     0  0
  7  1  1  0     0  0
  8  9  1  0     0  0
  9 26  1  0     0  0
 10  8  1  0     0  0
 11 37  1  0     0  0
 12  8  1  0     0  0
 13  1  2  0     0  0
 14 25  1  0     0  0
 15 24  1  0     0  0
 16  4  2  0     0  0
 17  6  2  0     0  0
 18 11  2  0     0  0
 19 10  1  0     0  0
 20  7  1  0     0  0
 21  7  2  0     0  0
 22 12  2  0     0  0
 23 12  1  0     0  0
 24  5  1  0     0  0
 25  5  1  0     0  0
 26 29  2  0     0  0
 27 11  1  0     0  0
 28 20  2  0     0  0
 29 21  1  0     0  0
 30 22  1  0     0  0
 31 23  2  0     0  0
 32 31  1  0     0  0
 33 16  1  0     0  0
 34 17  1  0     0  0
 35  4  1  0     0  0
 36  6  1  0     0  0
 37 43  1  0     0  0
 38 16  1  0     0  0
 39 17  1  0     0  0
 40 34  1  0     0  0
 41 32  1  0     0  0
 42 33  1  0     0  0
 43 40  1  0     0  0
 44 35  2  0     0  0
 45 36  2  0     0  0
 46 45  1  0     0  0
 47 44  1  0     0  0
 26 28  1  0     0  0
 46 39  2  0     0  0
 32 30  2  0     0  0
 15  2  1  0     0  0
 47 38  2  0     0  0
M  END