
          11280715352D 1   1.00000     0.00000     0

 41 44  0     1  0            999 V2000
    3.8750   -5.7042    0.0000 N   0  0  3  0  0  0           0  0  0
    4.8917   -5.1292    0.0000 C   0  0  0  0  0  0           0  0  0
    4.3875   -4.8417    0.0000 C   0  0  0  0  0  0           0  0  0
    4.8917   -3.9542    0.0000 C   0  0  2  0  0  0           0  0  0
    4.8875   -5.7167    0.0000 C   0  0  0  0  0  0           0  0  0
    3.8792   -5.1167    0.0000 C   0  0  0  0  0  0           0  0  0
    4.3875   -4.2542    0.0000 C   0  0  0  0  0  0           0  0  0
    5.4000   -4.2542    0.0000 C   0  0  2  0  0  0           0  0  0
    5.9167   -3.9667    0.0000 N   0  0  3  0  0  0           0  0  0
    5.4000   -4.8417    0.0000 C   0  0  0  0  0  0           0  0  0
    4.9000   -3.3667    0.0000 C   0  0  0  0  0  0           0  0  0
    5.4125   -3.0792    0.0000 C   0  0  0  0  0  0           0  0  0
    6.4417   -2.5042    0.0000 C   0  0  0  0  0  0           0  0  0
    5.9250   -3.3792    0.0000 C   0  0  0  0  0  0           0  0  0
    9.9250   -5.4625    0.0000 C   0  0  0  0  0  0           0  0  0
    8.2542   -5.4417    0.0000 C   0  0  0  0  0  0           0  0  0
    9.5042   -4.7375    0.0000 C   0  0  0  0  0  0           0  0  0
    8.6792   -4.7375    0.0000 C   0  0  0  0  0  0           0  0  0
    5.9375   -2.2042    0.0000 O   0  0  0  0  0  0           0  0  0
    3.2792   -6.2792    0.0000 C   0  0  3  0  0  0           0  0  0
    6.4375   -3.0917    0.0000 O   0  0  0  0  0  0           0  0  0
    8.6792   -6.1667    0.0000 O   0  0  0  0  0  0           0  0  0
   10.7500   -5.4625    0.0000 O   0  0  0  0  0  0           0  0  0
    5.4167   -2.4917    0.0000 C   0  0  0  0  0  0           0  0  0
    6.9542   -2.2167    0.0000 C   0  0  3  0  0  0           0  0  0
    3.3750   -4.8417    0.0000 C   0  0  0  0  0  0           0  0  0
    3.8792   -3.9542    0.0000 C   0  0  0  0  0  0           0  0  0
    6.4250   -4.2667    0.0000 C   0  0  0  0  0  0           0  0  0
    9.5042   -6.1667    0.0000 O   0  0  0  0  0  0           0  0  0
    7.4292   -5.4417    0.0000 O   0  0  0  0  0  0           0  0  0
    3.3750   -4.2542    0.0000 C   0  0  0  0  0  0           0  0  0
    6.9042   -1.6792    0.0000 C   0  0  0  0  0  0           0  0  0
    7.4417   -2.5917    0.0000 C   0  0  0  0  0  0           0  0  0
    2.4875   -6.0542    0.0000 C   0  0  0  0  0  0           0  0  0
    3.4792   -7.0792    0.0000 C   0  0  0  0  0  0           0  0  0
    7.9542   -2.5292    0.0000 C   0  0  0  0  0  0           0  0  0
    7.3542   -1.2792    0.0000 C   0  0  0  0  0  0           0  0  0
    7.9792   -1.4292    0.0000 C   0  0  0  0  0  0           0  0  0
    8.2417   -1.9917    0.0000 C   0  0  0  0  0  0           0  0  0
    5.9125   -4.5542    0.0000 H   0  0  0  0  0  0           0  0  0
    4.1375   -3.4042    0.0000 H   0  0  0  0  0  0           0  0  0
  2  5  2  0     0  0
  3  6  1  0     0  0
  4  7  1  0     0  0
  5  1  1  0     0  0
  6  1  1  0     0  0
  7  3  2  0     0  0
  8 10  1  0     0  0
  9  8  1  0     0  0
 10  2  1  0     0  0
 11  4  1  0     0  0
 12 11  2  0     0  0
 13 19  1  0     0  0
 14  9  1  0     0  0
 16 18  1  0     0  0
 17 15  1  0     0  0
 18 17  2  0     0  0
 19 24  1  0     0  0
 20  1  1  0     0  0
 21 13  2  0     0  0
 22 16  2  0     0  0
 23 15  2  0     0  0
 24 12  1  0     0  0
 25 13  1  0     0  0
 26  6  2  0     0  0
 27  7  1  0     0  0
 28  9  1  0     0  0
 29 15  1  0     0  0
 30 16  1  0     0  0
 31 26  1  0     0  0
 32 25  1  0     0  0
 33 25  1  0     0  0
 34 20  1  0     0  0
 35 20  1  0     0  0
 36 33  1  0     0  0
 37 32  1  0     0  0
 38 37  1  0     0  0
 39 36  1  0     0  0
  8 40  1  1     0  0
  4 41  1  6     0  0
  3  2  1  0     0  0
 31 27  2  0     0  0
  8  4  1  0     0  0
 14 12  1  0     0  0
 38 39  1  0     0  0
M  END