
  SciTegic02011310402D

 29 32  0  0  0  0            999 V2000
   10.0353  -10.0034    0.0000 C   0  0
   10.0342  -10.8307    0.0000 C   0  0
   10.7489  -11.2436    0.0000 C   0  0
   10.7471   -9.5907    0.0000 N   0  0
   11.4624   -9.9998    0.0000 C   0  0
   11.4612  -10.8328    0.0000 C   0  0
   12.1781  -11.2480    0.0000 C   0  0
   12.9007  -10.8348    0.0000 N   0  0
   12.9019  -10.0019    0.0000 N   0  0
   12.1805   -9.5820    0.0000 C   0  0
   12.1758  -12.0729    0.0000 C   0  0
   11.4601  -12.4834    0.0000 C   0  0
   10.7496  -12.0641    0.0000 C   0  0
   10.0346  -12.4739    0.0000 C   0  0
   10.0318  -13.2997    0.0000 C   0  0
   10.7500  -13.7141    0.0000 C   0  0
   11.4621  -13.3019    0.0000 C   0  0
    9.3167  -13.7111    0.0000 Cl  0  0
   12.1805   -8.7570    0.0000 O   0  0
   13.6173   -9.5911    0.0000 C   0  0
   14.3307  -10.0054    0.0000 C   0  0  1  0  0  0
   14.3436  -10.8274    0.0000 C   0  0
   15.1329  -11.0675    0.0000 C   0  0
   15.6050  -10.3909    0.0000 C   0  0
   15.1076   -9.7330    0.0000 N   0  0
   15.1408   -8.9086    0.0000 C   0  0
   15.8711   -8.5252    0.0000 C   0  0
   16.5685   -8.9659    0.0000 O   0  0
   17.2988   -8.5825    0.0000 C   0  0
 13 14  1  0
  1  2  2  0
 14 15  2  0
  5  4  2  0
 15 16  1  0
  4  1  1  0
 16 17  2  0
 17 12  1  0
  5 10  1  0
 15 18  1  0
  6  7  1  0
 10 19  2  0
  7  8  2  0
  9 20  1  0
  8  9  1  0
 21 20  1  6
 21 22  1  0
  9 10  1  0
  5  6  1  0
  7 11  1  0
 22 23  1  0
 23 24  1  0
 24 25  1  0
 25 21  1  0
 11 12  1  0
 25 26  1  0
  2  3  1  0
 26 27  1  0
 12 13  2  0
 27 28  1  0
  3  6  2  0
 28 29  1  0
M  END