
          11280715512D 1   1.00000     0.00000     0

 36 39  0     0  0            999 V2000
    6.5569  -24.0500    0.0000 C   0  0  0  0  0  0           0  0  0
    6.5557  -24.8773    0.0000 C   0  0  0  0  0  0           0  0  0
    7.2706  -25.2902    0.0000 C   0  0  0  0  0  0           0  0  0
    7.2688  -23.6372    0.0000 C   0  0  0  0  0  0           0  0  0
    7.9890  -24.8744    0.0000 C   0  0  0  0  0  0           0  0  0
    7.9841  -24.0463    0.0000 C   0  0  0  0  0  0           0  0  0
    8.6312  -23.5204    0.0000 N   0  0  3  0  0  0           0  0  0
    8.6452  -25.3889    0.0000 C   0  0  0  0  0  0           0  0  0
    9.4434  -23.6947    0.0000 C   0  0  0  0  0  0           0  0  0
    9.4559  -25.1959    0.0000 N   0  0  0  0  0  0           0  0  0
    9.8082  -24.4411    0.0000 N   0  0  3  0  0  0           0  0  0
    9.9517  -23.0449    0.0000 O   0  0  0  0  0  0           0  0  0
    8.4687  -26.1948    0.0000 C   0  0  3  0  0  0           0  0  0
   10.6332  -24.4338    0.0000 C   0  0  0  0  0  0           0  0  0
   11.0520  -25.1445    0.0000 C   0  0  0  0  0  0           0  0  0
   11.8770  -25.1372    0.0000 N   0  0  0  0  0  0           0  0  0
   10.6459  -25.8626    0.0000 O   0  0  0  0  0  0           0  0  0
    8.4387  -22.7182    0.0000 C   0  0  0  0  0  0           0  0  0
    9.0372  -22.1504    0.0000 C   0  0  0  0  0  0           0  0  0
    8.8447  -21.3481    0.0000 C   0  0  3  0  0  0           0  0  0
    9.8282  -22.3847    0.0000 O   0  0  0  0  0  0           0  0  0
    8.6250  -20.5458    0.0000 C   0  0  0  0  0  0           0  0  0
    9.6438  -21.1429    0.0000 C   0  0  0  0  0  0           0  0  0
    8.0474  -21.5602    0.0000 C   0  0  0  0  0  0           0  0  0
   12.2958  -25.8479    0.0000 C   0  0  0  0  0  0           0  0  0
   11.8878  -26.5638    0.0000 C   0  0  0  0  0  0           0  0  0
   12.3060  -27.2741    0.0000 C   0  0  0  0  0  0           0  0  0
   13.1318  -27.2671    0.0000 C   0  0  0  0  0  0           0  0  0
   13.5377  -26.5440    0.0000 C   0  0  0  0  0  0           0  0  0
   13.1172  -25.8367    0.0000 C   0  0  0  0  0  0           0  0  0
    7.6850  -26.4445    0.0000 C   0  0  0  0  0  0           0  0  0
    7.5074  -27.2465    0.0000 C   0  0  0  0  0  0           0  0  0
    8.1145  -27.8056    0.0000 C   0  0  0  0  0  0           0  0  0
    8.9022  -27.5571    0.0000 C   0  0  0  0  0  0           0  0  0
    9.0828  -26.7494    0.0000 C   0  0  0  0  0  0           0  0  0
   14.3627  -26.5337    0.0000 O   0  0  0  0  0  0           0  0  0
  6  4  2  0     0  0
  7 18  1  0     0  0
  7  9  1  0     0  0
 18 19  1  0     0  0
  4  1  1  0     0  0
 19 20  1  0     0  0
  8 10  2  0     0  0
 19 21  2  0     0  0
 20 22  1  0     0  0
  9 11  1  0     0  0
 20 23  1  0     0  0
 10 11  1  0     0  0
 20 24  1  0     0  0
  2  3  1  0     0  0
 16 25  1  0     0  0
  9 12  2  0     0  0
 25 26  2  0     0  0
  5  6  1  0     0  0
 26 27  1  0     0  0
  8 13  1  0     0  0
 27 28  2  0     0  0
  3  5  2  0     0  0
 28 29  1  0     0  0
 11 14  1  0     0  0
 29 30  2  0     0  0
 30 25  1  0     0  0
 13 31  1  0     0  0
  6  7  1  0     0  0
 14 15  1  0     0  0
  1  2  2  0     0  0
 15 16  1  0     0  0
  5  8  1  0     0  0
 13 35  1  0     0  0
 31 32  1  0     0  0
 32 33  1  0     0  0
 33 34  1  0     0  0
 34 35  1  0     0  0
 15 17  2  0     0  0
 29 36  1  0     0  0
M  END