
  SciTegic02271514372D

 30 32  0  0  0  0            999 V2000
   14.2499   -3.1145    0.0000 C   0  0
   14.9458   -2.6858    0.0000 C   0  0
   15.6667   -3.0774    0.0000 C   0  0
   15.6872   -3.8938    0.0000 C   0  0
   14.9913   -4.3225    0.0000 C   0  0
   14.2745   -3.9306    0.0000 C   0  0
   16.4077   -4.2812    0.0000 Cl  0  0
   16.3625   -2.6487    0.0000 Cl  0  0
    9.9187   -4.8794    0.0000 C   0  0
   10.3150   -4.1667    0.0000 C   0  0
    9.9344   -3.4422    0.0000 C   0  0
    9.1021   -4.8916    0.0000 O   0  0
   10.3347   -5.5838    0.0000 O   0  0
   11.1357   -4.1547    0.0000 N   0  0
   11.5517   -4.8591    0.0000 N   0  0
   12.8581   -5.5027    0.0000 S   0  0
   12.3683   -4.8468    0.0000 C   0  0
   12.8421   -4.1814    0.0000 N   0  0
   13.6208   -4.4209    0.0000 C   0  0
   13.6327   -5.2418    0.0000 C   0  0
    9.1179   -3.4102    0.0000 C   0  0
    8.6819   -4.1028    0.0000 C   0  0
    7.8653   -4.0708    0.0000 C   0  0
    7.4847   -3.3463    0.0000 C   0  0
    7.9206   -2.6579    0.0000 C   0  0
    8.7372   -2.6898    0.0000 C   0  0
    7.4293   -4.7634    0.0000 N   0  3
    6.6127   -4.7314    0.0000 O   0  0
    7.8098   -5.4879    0.0000 O   0  5
    6.6682   -3.3143    0.0000 N   0  0
  1  2  1  0
  2  3  2  0
  3  4  1  0
  4  5  2  0
  5  6  1  0
  1  6  2  0
  4  7  1  0
  3  8  1  0
  9 10  1  0
 10 11  1  0
  9 12  2  0
  9 13  1  0
 14 15  1  0
 16 17  1  0
 17 18  2  0
 18 19  1  0
 19 20  2  0
 16 20  1  0
 15 17  1  0
 10 14  2  0
 21 22  1  0
 22 23  2  0
 23 24  1  0
 24 25  2  0
 25 26  1  0
 21 26  2  0
 27 28  2  0
 27 29  1  0
 23 27  1  0
 24 30  1  0
 11 21  1  0
 19  6  1  0
M  CHG  2  27   1  29  -1
M  END