
          11280714492D 1   1.00000     0.00000     0

 35 38  0     0  0            999 V2000
    1.8875   -0.8875    0.0000 N   0  0  0  0  0  0           0  0  0
    2.0792   -1.6875    0.0000 C   0  0  0  0  0  0           0  0  0
    1.0625   -0.8250    0.0000 C   0  0  0  0  0  0           0  0  0
    0.7500   -1.5792    0.0000 O   0  0  0  0  0  0           0  0  0
    1.3750   -2.1167    0.0000 C   0  0  0  0  0  0           0  0  0
    2.8417   -2.0042    0.0000 C   0  0  0  0  0  0           0  0  0
    0.6292   -0.1167    0.0000 C   0  0  3  0  0  0           0  0  0
    0.9500    0.6458    0.0000 C   0  0  3  0  0  0           0  0  0
    1.5792    0.9750    0.0000 C   0  0  0  0  0  0           0  0  0
    1.6042    1.6875    0.0000 C   0  0  0  0  0  0           0  0  0
    4.0875    1.5833    0.0000 C   0  0  0  0  0  0           0  0  0
   -0.1833   -0.2292    0.0000 O   0  0  0  0  0  0           0  0  0
    2.2417    2.0208    0.0000 C   0  0  0  0  0  0           0  0  0
    3.4917   -1.5042    0.0000 O   0  0  0  0  0  0           0  0  0
   -0.3708    1.1875    0.0000 O   0  0  0  0  0  0           0  0  0
    4.7167    1.9208    0.0000 O   0  0  0  0  0  0           0  0  0
    2.9500   -2.8167    0.0000 N   0  0  0  0  0  0           0  0  0
   -0.6833    0.4250    0.0000 C   0  0  0  0  0  0           0  0  0
    2.8500    1.6375    0.0000 C   0  0  0  0  0  0           0  0  0
    3.4792    1.9708    0.0000 C   0  0  0  0  0  0           0  0  0
    0.4500    1.2958    0.0000 C   0  0  0  0  0  0           0  0  0
    6.1042   -4.9000    0.0000 C   0  0  0  0  0  0           0  0  0
    4.0542    0.8708    0.0000 O   0  0  0  0  0  0           0  0  0
    4.5792   -4.2667    0.0000 C   0  0  0  0  0  0           0  0  0
    6.8667   -5.2167    0.0000 Cl  0  0  0  0  0  0           0  0  0
    5.9917   -4.0792    0.0000 C   0  0  0  0  0  0           0  0  0
    5.4417   -5.4042    0.0000 C   0  0  0  0  0  0           0  0  0
    5.2292   -3.7667    0.0000 C   0  0  0  0  0  0           0  0  0
    4.6875   -5.0875    0.0000 C   0  0  0  0  0  0           0  0  0
    3.7125   -3.1375    0.0000 C   0  0  0  0  0  0           0  0  0
    1.0042    2.0708    0.0000 C   0  0  0  0  0  0           0  0  0
    3.8167   -3.9542    0.0000 C   0  0  0  0  0  0           0  0  0
    2.2750    2.7333    0.0000 C   0  0  0  0  0  0           0  0  0
    1.0292    2.7833    0.0000 C   0  0  0  0  0  0           0  0  0
    1.6667    3.1208    0.0000 C   0  0  0  0  0  0           0  0  0
  2  1  1  0     0  0
  3  1  2  0     0  0
  4  3  1  0     0  0
  5  2  2  0     0  0
  6  2  1  0     0  0
  7  3  1  0     0  0
  8  7  1  0     0  0
  9  8  1  0     0  0
 10  9  1  0     0  0
 11 20  1  0     0  0
 12  7  1  0     0  0
 13 10  2  0     0  0
 14  6  2  0     0  0
 15 18  1  0     0  0
 16 11  2  0     0  0
 17  6  1  0     0  0
 18 12  1  0     0  0
 19 13  1  0     0  0
 20 19  1  0     0  0
 21  8  1  0     0  0
 22 27  2  0     0  0
 23 11  1  0     0  0
 24 32  1  0     0  0
 25 22  1  0     0  0
 26 28  2  0     0  0
 27 29  1  0     0  0
 28 24  1  0     0  0
 29 24  2  0     0  0
 30 17  1  0     0  0
 31 10  1  0     0  0
 32 30  1  0     0  0
 33 13  1  0     0  0
 34 31  2  0     0  0
 35 34  1  0     0  0
  5  4  1  0     0  0
 15 21  1  0     0  0
 35 33  2  0     0  0
 22 26  1  0     0  0
M  END