
  SciTegic02271515152D

 33 36  0  0  0  0            999 V2000
   22.2386  -15.8863    0.0000 C   0  0
   22.2375  -16.7136    0.0000 C   0  0
   22.9522  -17.1265    0.0000 C   0  0
   23.6686  -16.7131    0.0000 C   0  0
   23.6658  -15.8827    0.0000 C   0  0
   22.9504  -15.4736    0.0000 C   0  0
   21.5241  -15.4741    0.0000 C   0  0
   20.8098  -15.8866    0.0000 N   0  0
   24.3796  -17.1226    0.0000 C   0  0
   24.4673  -17.9429    0.0000 C   0  0
   25.2744  -18.1131    0.0000 N   0  0
   25.6858  -17.3979    0.0000 C   0  0
   25.1327  -16.7859    0.0000 S   0  0
   20.0953  -15.4744    0.0000 C   0  0
   19.3810  -15.8870    0.0000 O   0  0
   20.0951  -14.6494    0.0000 C   0  0  2  0  0  0
   20.7678  -14.1655    0.0000 C   0  0
   20.5127  -13.3809    0.0000 C   0  0  2  0  0  0
   19.6877  -13.3811    0.0000 C   0  0
   19.4331  -14.1658    0.0000 N   0  0
   18.6483  -14.4198    0.0000 C   0  0
   18.4758  -15.2265    0.0000 O   0  0
   20.9975  -12.7134    0.0000 O   0  0
   23.8550  -18.4958    0.0000 C   0  0
   17.2510  -14.1212    0.0000 N   0  0
   18.0357  -13.8656    0.0000 C   0  0  1  0  0  0
   18.0351  -13.0402    0.0000 C   0  0
   17.2500  -12.7857    0.0000 C   0  0  2  0  0  0
   16.7654  -13.4538    0.0000 C   0  0
   16.9966  -14.9059    0.0000 C   0  0
   16.1898  -15.0780    0.0000 O   0  0
   17.5491  -15.5186    0.0000 C   0  0
   16.9943  -12.0013    0.0000 O   0  0
  1  2  2  0
  2  3  1  0
  3  4  2  0
  4  5  1  0
  5  6  2  0
  6  1  1  0
  1  7  1  0
  7  8  1  0
  9 10  2  0
 10 11  1  0
 11 12  2  0
 12 13  1  0
 13  9  1  0
  4  9  1  0
  8 14  1  0
 14 15  2  0
 16 14  1  1
 16 17  1  0
 17 18  1  0
 18 19  1  0
 19 20  1  0
 20 16  1  0
 20 21  1  0
 26 21  1  1
 21 22  2  0
 18 23  1  6
 10 24  1  0
 25 26  1  0
 26 27  1  0
 27 28  1  0
 28 29  1  0
 29 25  1  0
 25 30  1  0
 30 31  2  0
 30 32  1  0
 28 33  1  6
M  END