
  SciTegic06051313522D

 19 21  0  0  0  0            999 V2000
   24.7248   -9.9796    0.0000 C   0  0
   24.7237  -10.7991    0.0000 C   0  0
   25.4317  -11.2081    0.0000 C   0  0
   25.4299   -9.5707    0.0000 C   0  0
   26.1385   -9.9760    0.0000 C   0  0
   26.1388  -10.7992    0.0000 C   0  0
   26.9218  -11.0534    0.0000 N   0  0
   27.4055  -10.3872    0.0000 C   0  0
   26.9214   -9.7215    0.0000 C   0  0
   28.2261  -10.3854    0.0000 C   0  0
   28.6350  -11.0929    0.0000 O   0  0
   28.6345   -9.6775    0.0000 O   0  0
   27.1734   -8.9456    0.0000 C   0  0
   27.9741   -8.7765    0.0000 C   0  0
   28.2264   -8.0001    0.0000 C   0  0
   27.6792   -7.3920    0.0000 C   0  0
   26.8763   -7.5657    0.0000 C   0  0
   26.6277   -8.3419    0.0000 C   0  0
   25.4319  -12.0253    0.0000 C   0  0
  1  2  2  0
  2  3  1  0
  3  6  2  0
  5  4  2  0
  4  1  1  0
  5  6  1  0
  6  7  1  0
  7  8  1  0
  8  9  2  0
  9  5  1  0
 10 11  1  0
 10 12  2  0
  8 10  1  0
 13 14  2  0
 14 15  1  0
 15 16  2  0
 16 17  1  0
 17 18  2  0
 18 13  1  0
  9 13  1  0
  3 19  1  0
M  END