
  SciTegic04191617032D

 15 16  0  0  0  0            999 V2000
    1.3786   -3.8595    0.0000 N   0  0
    2.5951   -3.0039    0.0000 C   0  0
    3.8056   -3.8679    0.0000 C   0  0
    3.3372   -5.2929    0.0000 N   0  0
    1.8372   -5.2877    0.0000 C   0  0
    1.1285   -6.2561    0.0000 S   0  0
    4.9460   -3.4943    0.0000 O   0  0
    2.5973   -1.5031    0.0000 C   0  0
    3.8976   -0.7537    0.0000 C   0  0
    3.9019    0.7463    0.0000 C   0  0
    5.2031    1.4926    0.0000 N   0  0
    6.4999    0.7389    0.0000 C   0  0
    6.4957   -0.7611    0.0000 C   0  0
    5.1945   -1.5074    0.0000 C   0  0
    7.5409    1.3359    0.0000 O   0  0
  1  2  1  0
  2  3  1  0
  3  4  1  0
  4  5  1  0
  5  1  1  0
  5  6  2  0
  3  7  2  0
  2  8  2  0
  8  9  1  0
  9 10  2  0
 10 11  1  0
 11 12  1  0
 12 13  1  0
 13 14  2  0
 14  9  1  0
 12 15  2  0
M  END