
          11280715502D 1   1.00000     0.00000     0

 34 38  0     0  0            999 V2000
    0.0742  -19.7889    0.0000 N   0  0  3  0  0  0           0  0  0
   -0.6780  -20.1358    0.0000 N   0  0  0  0  0  0           0  0  0
   -1.2405  -19.5323    0.0000 C   0  0  0  0  0  0           0  0  0
   -0.8377  -18.8107    0.0000 C   0  0  0  0  0  0           0  0  0
   -0.0294  -18.9684    0.0000 C   0  0  0  0  0  0           0  0  0
   -2.0571  -19.6351    0.0000 C   0  0  0  0  0  0           0  0  0
   -2.3830  -20.3926    0.0000 O   0  0  0  0  0  0           0  0  0
   -2.5593  -18.9777    0.0000 N   0  0  0  0  0  0           0  0  0
    0.7950  -20.1879    0.0000 C   0  0  0  0  0  0           0  0  0
    0.8083  -21.0170    0.0000 C   0  0  0  0  0  0           0  0  0
    1.5291  -21.4160    0.0000 C   0  0  0  0  0  0           0  0  0
    1.5455  -22.2402    0.0000 C   0  0  0  0  0  0           0  0  0
    0.8372  -22.6663    0.0000 C   0  0  0  0  0  0           0  0  0
    0.1165  -22.2674    0.0000 C   0  0  0  0  0  0           0  0  0
    0.0992  -21.4392    0.0000 C   0  0  0  0  0  0           0  0  0
    0.8496  -23.4914    0.0000 C   0  0  0  0  0  0           0  0  0
    0.5740  -18.4059    0.0000 C   0  0  0  0  0  0           0  0  0
    0.3887  -17.6015    0.0000 C   0  0  0  0  0  0           0  0  0
    0.9960  -17.0379    0.0000 C   0  0  0  0  0  0           0  0  0
    1.7849  -17.2798    0.0000 C   0  0  0  0  0  0           0  0  0
    1.9702  -18.0842    0.0000 C   0  0  0  0  0  0           0  0  0
    1.3668  -18.6467    0.0000 C   0  0  0  0  0  0           0  0  0
    0.8107  -16.2336    0.0000 C   0  0  0  0  0  0           0  0  0
    2.3882  -16.7171    0.0000 Cl  0  0  0  0  0  0           0  0  0
   -3.3616  -19.0816    0.0000 C   0  0  3  0  0  0           0  0  0
   -5.0515  -19.3749    0.0000 C   0  0  0  0  0  0           0  0  0
   -4.6270  -18.8464    0.0000 C   0  0  0  0  0  0           0  0  0
   -3.9911  -18.5461    0.0000 C   0  0  3  0  0  0           0  0  0
   -4.3053  -19.1485    0.0000 C   0  0  3  0  0  0           0  0  0
   -4.0077  -17.7999    0.0000 C   0  0  0  0  0  0           0  0  0
   -3.7157  -19.5882    0.0000 C   0  0  3  0  0  0           0  0  0
   -3.9311  -20.3669    0.0000 C   0  0  0  0  0  0           0  0  0
   -3.1465  -20.1585    0.0000 C   0  0  0  0  0  0           0  0  0
   -3.2605  -18.1985    0.0000 C   0  0  0  0  0  0           0  0  0
 11 12  2  0     0  0
 12 13  1  0     0  0
 13 14  2  0     0  0
 14 15  1  0     0  0
 10 15  2  0     0  0
 13 16  1  0     0  0
  9 10  1  0     0  0
  1  9  1  0     0  0
 17 18  1  0     0  0
 18 19  2  0     0  0
 19 20  1  0     0  0
 20 21  2  0     0  0
 21 22  1  0     0  0
 17 22  2  0     0  0
 19 23  1  0     0  0
 20 24  1  0     0  0
  5 17  1  0     0  0
 25  8  1  0     0  0
  1  2  1  0     0  0
  2  3  2  0     0  0
  3  4  1  0     0  0
  4  5  2  0     0  0
  1  5  1  0     0  0
  6  7  2  0     0  0
 26 27  1  0     0  0
 27 28  1  0     0  0
 26 29  1  0     0  0
 29 30  1  0     0  0
 30 28  1  0     0  0
 28 25  1  0     0  0
 25 31  1  0     0  0
 31 29  1  0     0  0
  6  8  1  0     0  0
 31 32  1  0     0  0
  3  6  1  0     0  0
 31 33  1  0     0  0
 10 11  1  0     0  0
 28 34  1  0     0  0
M  END