
          11280715492D 1   1.00000     0.00000     0

 26 29  0     0  0            999 V2000
   11.0995   -1.8084    0.0000 N   0  0  0  0  0  0           0  0  0
   11.0983   -2.6359    0.0000 C   0  0  0  0  0  0           0  0  0
   11.8132   -3.0487    0.0000 C   0  0  0  0  0  0           0  0  0
   12.5297   -2.6354    0.0000 C   0  0  0  0  0  0           0  0  0
   12.5268   -1.8048    0.0000 C   0  0  0  0  0  0           0  0  0
   11.8114   -1.3956    0.0000 C   0  0  0  0  0  0           0  0  0
   13.2449   -3.0468    0.0000 C   0  0  0  0  0  0           0  0  0
   14.1364   -4.0427    0.0000 N   0  0  0  0  0  0           0  0  0
   14.5481   -3.3312    0.0000 C   0  0  0  0  0  0           0  0  0
   13.9873   -2.7086    0.0000 N   0  0  0  0  0  0           0  0  0
   13.3292   -3.8643    0.0000 C   0  0  0  0  0  0           0  0  0
   12.7135   -4.4125    0.0000 C   0  0  0  0  0  0           0  0  0
   11.9920   -4.0099    0.0000 C   0  0  0  0  0  0           0  0  0
   11.2848   -4.4334    0.0000 C   0  0  0  0  0  0           0  0  0
   11.2979   -5.2592    0.0000 C   0  0  0  0  0  0           0  0  0
   12.0241   -5.6598    0.0000 C   0  0  0  0  0  0           0  0  0
   12.7283   -5.2340    0.0000 C   0  0  0  0  0  0           0  0  0
   12.0406   -6.4847    0.0000 O   0  0  0  0  0  0           0  0  0
   15.3729   -3.3116    0.0000 C   0  0  0  0  0  0           0  0  0
   15.7981   -4.0162    0.0000 C   0  0  0  0  0  0           0  0  0
   16.6222   -3.9969    0.0000 C   0  0  0  0  0  0           0  0  0
   17.0185   -3.2723    0.0000 C   0  0  0  0  0  0           0  0  0
   16.5845   -2.5655    0.0000 C   0  0  0  0  0  0           0  0  0
   15.7620   -2.5882    0.0000 C   0  0  0  0  0  0           0  0  0
   10.5908   -5.6844    0.0000 C   0  0  0  0  0  0           0  0  0
    9.8691   -5.2845    0.0000 O   0  0  0  0  0  0           0  0  0
 12 13  2  0     0  0
  1  2  2  0     0  0
 13 14  1  0     0  0
  4  7  1  0     0  0
 14 15  2  0     0  0
  3  4  2  0     0  0
 15 16  1  0     0  0
 16 17  2  0     0  0
 17 12  1  0     0  0
 11 12  1  0     0  0
  4  5  1  0     0  0
 16 18  1  0     0  0
  2  3  1  0     0  0
  9 19  1  0     0  0
  8  9  1  0     0  0
 19 20  2  0     0  0
  9 10  2  0     0  0
 20 21  1  0     0  0
 10  7  1  0     0  0
 21 22  2  0     0  0
  7 11  2  0     0  0
 22 23  1  0     0  0
 11  8  1  0     0  0
 23 24  2  0     0  0
 24 19  1  0     0  0
  5  6  2  0     0  0
 15 25  1  0     0  0
  6  1  1  0     0  0
 25 26  1  0     0  0
M  END