
          11280715522D 1   1.00000     0.00000     0

 47 50  0     1  0            999 V2000
   -4.8473    3.0000    0.0000 C   0  0  0  0  0  0           0  0  0
   -4.8484    2.1727    0.0000 C   0  0  0  0  0  0           0  0  0
   -4.1336    1.7598    0.0000 C   0  0  0  0  0  0           0  0  0
   -4.1354    3.4128    0.0000 C   0  0  0  0  0  0           0  0  0
   -3.4200    3.0037    0.0000 C   0  0  0  0  0  0           0  0  0
   -3.4193    2.1768    0.0000 C   0  0  0  0  0  0           0  0  0
   -2.7040    1.7659    0.0000 N   0  0  0  0  0  0           0  0  0
   -1.9889    2.1806    0.0000 C   0  0  0  0  0  0           0  0  0
   -1.9937    3.0106    0.0000 C   0  0  0  0  0  0           0  0  0
   -2.7096    3.4178    0.0000 C   0  0  0  0  0  0           0  0  0
   -4.1317    0.9348    0.0000 O   0  0  0  0  0  0           0  0  0
   -3.4163    0.5240    0.0000 C   0  0  0  0  0  0           0  0  0
   -3.4144   -0.3010    0.0000 C   0  0  0  0  0  0           0  0  0
   -4.1305   -0.7108    0.0000 C   0  0  0  0  0  0           0  0  0
   -4.1289   -1.5351    0.0000 C   0  0  0  0  0  0           0  0  0
   -3.4129   -1.9467    0.0000 C   0  0  0  0  0  0           0  0  0
   -2.6971   -1.5281    0.0000 C   0  0  0  0  0  0           0  0  0
   -2.7021   -0.7053    0.0000 C   0  0  0  0  0  0           0  0  0
   -4.8445   -0.2976    0.0000 Cl  0  0  0  0  0  0           0  0  0
   -1.9905   -0.2879    0.0000 Cl  0  0  0  0  0  0           0  0  0
   -1.2729    1.7709    0.0000 C   0  0  0  0  0  0           0  0  0
   -1.9802   -1.9364    0.0000 S   0  0  3  0  0  0           0  0  0
   -1.2708   -2.3458    0.0000 N   0  0  0  0  0  0           0  0  0
   -1.6011   -1.3457    0.0000 O   0  0  0  0  0  0           0  0  0
   -2.3228   -2.5301    0.0000 O   0  0  0  0  0  0           0  0  0
   -0.5252   -1.9020    0.0000 C   0  0  3  0  0  0           0  0  0
    0.1542   -1.5125    0.0000 C   0  0  0  0  0  0           0  0  0
   -0.2025   -2.5517    0.0000 C   0  0  0  0  0  0           0  0  0
   -0.8173   -1.2215    0.0000 C   0  0  0  0  0  0           0  0  0
    0.1451   -0.6875    0.0000 O   0  0  0  0  0  0           0  0  0
    0.8731   -1.9171    0.0000 N   0  0  3  0  0  0           0  0  0
    0.8777   -2.7426    0.0000 C   0  0  0  0  0  0           0  0  0
    1.5925   -3.1472    0.0000 C   0  0  0  0  0  0           0  0  0
    2.3049   -2.7304    0.0000 N   0  0  3  0  0  0           0  0  0
    2.2978   -1.9044    0.0000 C   0  0  0  0  0  0           0  0  0
    1.5784   -1.4953    0.0000 C   0  0  0  0  0  0           0  0  0
    3.0223   -3.1377    0.0000 C   0  0  0  0  0  0           0  0  0
    3.7338   -2.7201    0.0000 O   0  0  0  0  0  0           0  0  0
    3.0282   -3.9627    0.0000 C   0  0  0  0  0  0           0  0  0
    3.7456   -4.3701    0.0000 C   0  0  2  0  0  0           0  0  0
    3.7516   -5.1950    0.0000 C   0  0  0  0  0  0           0  0  0
    4.4571   -3.9525    0.0000 N   0  0  0  0  0  0           0  0  0
    4.4690   -5.6024    0.0000 C   0  0  0  0  0  0           0  0  0
    5.1805   -5.1848    0.0000 C   0  0  0  0  0  0           0  0  0
    5.8979   -5.5922    0.0000 N   0  0  3  0  0  0           0  0  0
    6.6094   -5.1745    0.0000 C   0  0  0  0  0  0           0  0  0
    5.9038   -6.4171    0.0000 C   0  0  0  0  0  0           0  0  0
 22 23  1  0     0  0
  3 11  1  0     0  0
 22 24  2  0     0  0
  2  3  1  0     0  0
 22 25  2  0     0  0
 11 12  1  0     0  0
 23 26  1  0     0  0
  5  6  1  0     0  0
 26 27  1  0     0  0
 12 13  1  0     0  0
 26 28  1  0     0  0
  3  6  2  0     0  0
 26 29  1  0     0  0
 13 14  2  0     0  0
 27 30  2  0     0  0
  6  7  1  0     0  0
 27 31  1  0     0  0
 31 32  1  0     0  0
 14 15  1  0     0  0
  1  2  2  0     0  0
 15 16  2  0     0  0
  7  8  2  0     0  0
 16 17  1  0     0  0
 31 36  1  0     0  0
 32 33  1  0     0  0
 33 34  1  0     0  0
 34 35  1  0     0  0
 35 36  1  0     0  0
  5  4  2  0     0  0
 34 37  1  0     0  0
 17 18  2  0     0  0
 37 38  2  0     0  0
 18 13  1  0     0  0
 37 39  1  0     0  0
  8  9  1  0     0  0
 39 40  1  0     0  0
 14 19  1  0     0  0
 40 41  1  0     0  0
  4  1  1  0     0  0
 40 42  1  1     0  0
 18 20  1  0     0  0
 41 43  1  0     0  0
  9 10  2  0     0  0
 43 44  1  0     0  0
  8 21  1  0     0  0
 44 45  1  0     0  0
 10  5  1  0     0  0
 45 46  1  0     0  0
 17 22  1  0     0  0
 45 47  1  0     0  0
M  END