
  SciTegic12231509382D

 28 31  0  0  1  0            999 V2000
   11.8879   -2.6461    0.0000 S   0  0
    9.7378   -5.5528    0.0000 C   0  0
    9.0196   -5.1468    0.0000 C   0  0
    9.7378   -3.8985    0.0000 C   0  0  2  0  0  0
    9.0196   -4.3217    0.0000 C   0  0
    8.3228   -6.3651    0.0000 N   0  0
   10.4047   -4.3217    0.0000 C   0  0  2  0  0  0
   11.1356   -3.8985    0.0000 N   0  0
    9.7378   -6.3651    0.0000 C   0  0
    8.3228   -5.5528    0.0000 C   0  0
   10.4047   -5.1468    0.0000 C   0  0
   11.1100   -2.2570    0.0000 N   0  0
   10.4047   -2.6931    0.0000 C   0  0  2  0  0  0
   12.6317   -3.0564    0.0000 N   0  0
   11.1356   -3.0949    0.0000 C   0  0
    9.7378   -3.0949    0.0000 C   0  0
   11.8751   -3.4540    0.0000 O   0  0
   12.5847   -2.2101    0.0000 O   0  0
    8.3228   -3.8985    0.0000 C   0  0
    7.6988   -6.8524    0.0000 C   0  0
   11.8538   -4.3260    0.0000 C   0  0
    7.6090   -5.1468    0.0000 C   0  0
    7.6090   -4.3217    0.0000 C   0  0
   12.6317   -3.9157    0.0000 C   0  0
   13.3670   -2.6289    0.0000 C   0  0
   11.1954   -4.8133    0.0000 H   0  0
    8.9812   -3.4625    0.0000 H   0  0
    9.6480   -2.1929    0.0000 H   0  0
  2 11  1  0
  3  5  2  0
  4 16  1  0
  5  4  1  0
  6 10  1  0
  7  4  1  0
  8 15  1  0
  9  2  2  0
 10  3  1  0
 11  7  1  0
 12  1  1  0
 13 12  1  6
 14  1  1  0
 15 13  1  0
 16 13  1  0
 17  1  2  0
 18  1  2  0
 19  5  1  0
 20  6  1  0
 21  8  1  0
 22 23  1  0
 23 19  2  0
 24 14  1  0
 25 14  1  0
  7 26  1  1
  4 27  1  6
 13 28  1  1
  8  7  1  0
  3  2  1  0
  9  6  1  0
 22 10  2  0
M  END