
          03140815512D 1   1.00000     0.00000     0

 31 36  0     1  0            999 V2000
    7.3642  -17.1139    0.0000 C   0  0  0  0  0  0           0  0  0
    8.0055  -16.4302    0.0000 C   0  0  3  0  0  0           0  0  0
    8.1687  -16.8889    0.0000 C   0  0  3  0  0  0           0  0  0
    8.7170  -16.6929    0.0000 C   0  0  0  0  0  0           0  0  0
    8.9215  -17.1917    0.0000 C   0  0  0  0  0  0           0  0  0
    9.4648  -16.5073    0.0000 C   0  0  3  0  0  0           0  0  0
    8.1619  -16.0405    0.0000 C   0  0  0  0  0  0           0  0  0
    8.7227  -15.3783    0.0000 C   0  0  3  0  0  0           0  0  0
    8.0010  -15.6348    0.0000 C   0  0  0  0  0  0           0  0  0
    9.4706  -15.6884    0.0000 C   0  0  0  0  0  0           0  0  0
    8.7175  -14.5513    0.0000 C   0  0  0  0  0  0           0  0  0
    9.4293  -14.1342    0.0000 N   0  0  0  0  0  0           0  0  0
   10.1465  -14.5423    0.0000 C   0  0  0  0  0  0           0  0  0
   10.8583  -14.1251    0.0000 C   0  0  0  0  0  0           0  0  0
   10.1517  -15.3672    0.0000 O   0  0  0  0  0  0           0  0  0
   11.5728  -14.5338    0.0000 C   0  0  0  0  0  0           0  0  0
   12.2843  -14.1174    0.0000 C   0  0  0  0  0  0           0  0  0
   12.2795  -13.2916    0.0000 C   0  0  0  0  0  0           0  0  0
   11.5573  -12.8837    0.0000 C   0  0  0  0  0  0           0  0  0
   10.8488  -13.3024    0.0000 C   0  0  0  0  0  0           0  0  0
   11.5769  -15.3588    0.0000 Cl  0  0  0  0  0  0           0  0  0
   11.5492  -12.0587    0.0000 C   0  0  0  0  0  0           0  0  0
   12.2596  -11.6391    0.0000 N   0  0  3  0  0  0           0  0  0
   12.9813  -12.0490    0.0000 C   0  0  2  0  0  0           0  0  0
   13.6897  -11.6329    0.0000 C   0  0  0  0  0  0           0  0  0
   13.6858  -10.8074    0.0000 N   0  0  0  0  0  0           0  0  0
   12.9673  -10.3998    0.0000 C   0  0  2  0  0  0           0  0  0
   12.2528  -10.8175    0.0000 C   0  0  0  0  0  0           0  0  0
   12.7469  -11.1927    0.0000 C   0  0  0  0  0  0           0  0  0
   12.9594   -9.5716    0.0000 H   0  0  0  0  0  0           0  0  0
   12.9761  -12.8719    0.0000 H   0  0  0  0  0  0           0  0  0
  3  5  1  0     0  0
 13 15  2  0     0  0
  4  6  1  0     0  0
 14 16  2  0     0  0
  5  6  1  0     0  0
 16 17  1  0     0  0
  7  8  1  0     0  0
 17 18  2  0     0  0
  3  7  1  0     0  0
 18 19  1  0     0  0
  2  9  1  0     0  0
 19 20  2  0     0  0
 20 14  1  0     0  0
  6 10  1  0     0  0
 16 21  1  0     0  0
 10  8  1  0     0  0
 19 22  1  0     0  0
  8  9  1  0     0  0
 22 23  1  0     0  0
 23 24  1  0     0  0
  8 11  1  0     0  0
  1  2  1  0     0  0
 11 12  1  0     0  0
  1  3  1  0     0  0
 23 28  1  0     0  0
 24 25  1  0     0  0
 25 26  1  0     0  0
 26 27  1  0     0  0
 27 28  1  0     0  0
 12 13  1  0     0  0
 27 29  1  0     0  0
 24 29  1  0     0  0
  2  4  1  0     0  0
 27 30  1  6     0  0
 13 14  1  0     0  0
 24 31  1  6     0  0
M  END