
  SciTegic01061414252D

 33 36  0  0  0  0            999 V2000
   12.5170   -9.6818    0.0000 O   0  0
   12.2796  -10.4637    0.0000 N   0  0
   11.4626  -10.4797    0.0000 C   0  0
   11.1950   -9.7075    0.0000 C   0  0
   11.8466   -9.2144    0.0000 C   0  0
   10.9952  -11.1500    0.0000 C   0  0
   10.1810  -11.0805    0.0000 O   0  0
   11.3421  -11.8900    0.0000 N   0  0
    9.9400  -13.9010    0.0000 N   0  0
    9.5932  -13.1611    0.0000 C   0  0
   10.0605  -12.4907    0.0000 C   0  0
   10.8747  -12.5603    0.0000 C   0  0
   11.2216  -13.3002    0.0000 C   0  0
   10.7543  -13.9706    0.0000 C   0  0
    9.4727  -14.5714    0.0000 C   0  0
   11.8307   -8.3974    0.0000 C   0  0
   11.1151   -8.0027    0.0000 C   0  0
   11.0992   -7.1856    0.0000 C   0  0
   11.7988   -6.7633    0.0000 C   0  0
   12.5144   -7.1580    0.0000 C   0  0
   12.5303   -7.9751    0.0000 C   0  0
   13.2458   -8.3698    0.0000 O   0  0
   11.7829   -5.9463    0.0000 O   0  0
   10.4155   -8.4250    0.0000 O   0  0
    9.7000   -8.0302    0.0000 C   0  0
    9.0004   -8.4526    0.0000 C   0  0
    8.2848   -8.0578    0.0000 C   0  0
    8.2689   -7.2408    0.0000 C   0  0
    8.9685   -6.8185    0.0000 C   0  0
    9.6841   -7.2132    0.0000 C   0  0
    7.5534   -6.8461    0.0000 N   0  0
    6.8538   -7.2684    0.0000 C   0  0
    7.5375   -6.0290    0.0000 C   0  0
  1  2  1  0
  2  3  2  0
  3  4  1  0
  4  5  2  0
  1  5  1  0
  6  7  2  0
  6  8  1  0
  3  6  1  0
  9 10  1  0
 10 11  1  0
 11 12  1  0
 12 13  1  0
 13 14  1  0
  9 14  1  0
  9 15  1  0
  8 12  1  0
 16 17  1  0
 17 18  2  0
 18 19  1  0
 19 20  2  0
 20 21  1  0
 16 21  2  0
 21 22  1  0
 19 23  1  0
 25 26  1  0
 26 27  2  0
 27 28  1  0
 28 29  2  0
 29 30  1  0
 25 30  2  0
 24 25  1  0
 31 32  1  0
 31 33  1  0
 28 31  1  0
 17 24  1  0
  5 16  1  0
M  END