
  SciTegic09081514192D

 50 54  0  0  0  0            999 V2000
    2.0934   -2.2270    0.0000 C   0  0
    3.5632   -2.4942    0.0000 C   0  0
    4.5431   -1.4253    0.0000 C   0  0  1  0  0  0
    4.0754    0.0000    0.0000 C   0  0
    1.5812   -0.7794    0.0000 C   0  0  1  0  0  0
    2.4942    0.2895    0.0000 N   0  0
    2.0934    1.7370    0.0000 C   0  0
    0.6236    2.0488    0.0000 C   0  0
    0.0891   -0.4677    0.0000 C   0  0
   -0.3340    0.9353    0.0000 C   0  0
   -1.0690   -1.3585    0.0000 N   0  0
   -2.2938   -0.4677    0.0000 C   0  0
   -1.8484    0.9353    0.0000 C   0  0
   -2.8728    2.0488    0.0000 C   0  0
   -4.3426    1.7370    0.0000 C   0  0
   -4.8103    0.2672    0.0000 C   0  0
   -3.7636   -0.8240    0.0000 C   0  0
    0.9230   -1.5323    0.0000 H   0  0
    6.0080   -1.7520    0.0000 C   0  0
    7.0242   -0.6475    0.0000 N   0  0
    6.3668   -2.8970    0.0000 O   0  0
    8.4890   -0.9745    0.0000 C   0  0  2  0  0  0
    9.5052    0.1299    0.0000 C   0  0
   10.9700   -0.1970    0.0000 N   0  0
    9.1464    1.2750    0.0000 O   0  0
   11.9863    0.9074    0.0000 C   0  0  2  0  0  0
   11.5404    2.3405    0.0000 C   0  0
   12.5579    3.4438    0.0000 N   0  0
   10.3698    2.6043    0.0000 O   0  0
   12.1120    4.8769    0.0000 C   0  0  2  0  0  0
   10.6486    5.2098    0.0000 C   0  0
    9.8332    4.3294    0.0000 N   0  0
   10.2934    6.3561    0.0000 O   0  0
    8.9408   -2.4057    0.0000 C   0  0
   13.1295    5.9802    0.0000 C   0  0
   10.4059   -2.7310    0.0000 C   0  0
   10.8576   -4.1623    0.0000 C   0  0
   12.0291   -4.4224    0.0000 C   0  0
   13.4510    0.5805    0.0000 C   0  0
   14.4673    1.6849    0.0000 C   0  0
   15.9317    1.3603    0.0000 C   0  0
   16.9452    2.4662    0.0000 C   0  0
   16.4942    3.8967    0.0000 C   0  0
   15.0297    4.2215    0.0000 C   0  0
   14.0163    3.1156    0.0000 C   0  0
   17.3049    4.7814    0.0000 O   0  0
   12.6836    7.4132    0.0000 C   0  0
   13.7011    8.5165    0.0000 C   0  0
   13.2552    9.9496    0.0000 C   0  0
   14.0687   10.8318    0.0000 N   0  0
  6  4  1  0
  5  1  1  0
  1  2  1  0
  2  3  1  0
  3  4  1  0
  5  6  1  0
  5  9  1  0
  6  7  1  0
  7  8  1  0
  8 10  1  0
  9 10  2  0
 10 13  1  0
 12 11  1  0
 11  9  1  0
 12 13  2  0
 13 14  1  0
 14 15  2  0
 15 16  1  0
 16 17  2  0
 17 12  1  0
  5 18  1  1
  3 19  1  1
 19 20  1  0
 19 21  2  0
 20 22  1  0
 22 23  1  0
 23 24  1  0
 23 25  2  0
 24 26  1  0
 26 27  1  0
 27 28  1  0
 27 29  2  0
 28 30  1  0
 30 31  1  0
 31 32  1  0
 31 33  2  0
 22 34  1  6
 30 35  1  6
 34 36  1  0
 36 37  1  0
 37 38  1  0
 26 39  1  6
 39 40  1  0
 40 41  2  0
 41 42  1  0
 42 43  2  0
 43 44  1  0
 44 45  2  0
 45 40  1  0
 43 46  1  0
 35 47  1  0
 47 48  1  0
 48 49  1  0
 49 50  1  0
M  END