
  SciTegic03161210572D

 39 41  0  0  0  0            999 V2000
    2.8369  -22.2411    0.0000 F   0  0
    3.2542  -22.9587    0.0000 C   0  0
    3.6670  -22.2386    0.0000 F   0  0
    2.9455  -24.0851    0.0000 F   0  0
    2.5366  -23.3717    0.0000 C   0  0
    2.1232  -24.0824    0.0000 F   0  0
    1.4060  -22.2411    0.0000 F   0  0
    1.8231  -22.9587    0.0000 C   0  0
    2.2361  -22.2386    0.0000 F   0  0
    1.5144  -24.0851    0.0000 F   0  0
    1.1056  -23.3717    0.0000 C   0  0
    0.6922  -24.0824    0.0000 F   0  0
   -0.0250  -22.2411    0.0000 F   0  0
    0.3922  -22.9587    0.0000 C   0  0
    0.8050  -22.2386    0.0000 F   0  0
    0.0834  -24.0851    0.0000 F   0  0
   -0.3254  -23.3717    0.0000 C   0  0
   -0.7388  -24.0824    0.0000 F   0  0
   -1.7523  -23.3758    0.0000 N   0  0
   -1.0368  -22.9628    0.0000 C   0  0
   -1.0368  -22.1367    0.0000 O   0  0
    3.9709  -23.3758    0.0000 C   0  0
    4.6862  -22.9628    0.0000 N   0  0
    3.9709  -24.2019    0.0000 O   0  0
    5.4016  -23.3758    0.0000 O   0  0
   -2.4677  -22.9628    0.0000 C   0  0
   -2.4627  -22.1357    0.0000 C   0  0
   -3.8921  -22.1367    0.0000 C   0  0
   -3.1778  -21.7234    0.0000 C   0  0
   -3.1796  -20.9000    0.0000 C   0  0
   -3.8949  -20.4890    0.0000 C   0  0
   -4.6099  -20.9074    0.0000 C   0  0
   -4.6046  -21.7293    0.0000 C   0  0
   -3.1758  -23.3753    0.0000 C   0  0
   -3.8880  -22.9631    0.0000 C   0  0
   -4.5990  -23.3736    0.0000 C   0  0
   -4.5991  -24.1964    0.0000 C   0  0
   -3.8822  -24.6067    0.0000 C   0  0
   -3.1741  -24.1939    0.0000 C   0  0
 11  8  1  0
  8  5  1  0
  5  2  1  0
 14 13  1  0
  2 22  1  0
 15 14  1  0
 22 23  1  0
  9  8  1  0
 22 24  2  0
  5  4  1  0
 23 25  1  0
  6  5  1  0
 19 26  1  0
 17 16  1  0
 26 27  2  0
 27 29  1  0
 34 26  1  0
 35 28  1  0
 18 17  1  0
 28 29  2  0
 11 10  1  0
 29 30  1  0
 12 11  1  0
 30 31  2  0
  2  1  1  0
 31 32  1  0
  3  2  1  0
 32 33  2  0
 33 28  1  0
 19 20  1  0
 20 17  1  0
 34 35  2  0
  8  7  1  0
 35 36  1  0
 20 21  2  0
 36 37  2  0
 17 14  1  0
 37 38  1  0
 14 11  1  0
 38 39  2  0
 39 34  1  0
M  END