
  SciTegic10311217562D

 50 47  0  0  0  0            999 V2000
   -3.2167   -3.9833    0.0000 Na  0  3
    0.8613   -4.2417    0.0000 C   0  0
    1.5769   -3.8312    0.0000 C   0  0
    2.2902   -4.2458    0.0000 N   0  0
    3.0059   -3.8354    0.0000 C   0  0
    3.7191   -4.2500    0.0000 C   0  0
    3.0083   -3.0104    0.0000 O   0  0
    4.4348   -3.8396    0.0000 N   0  0
    5.1481   -4.2542    0.0000 C   0  0
    5.8638   -3.8438    0.0000 O   0  0
    5.1457   -5.0792    0.0000 C   0  0
    2.2953   -0.1292    0.0000 S   0  0
    3.0097   -0.5417    0.0000 O   0  5
    1.8751    0.5875    0.0000 O   0  0
    2.7001    0.5875    0.0000 O   0  0
   -0.5625   -1.7750    0.0000 C   0  0  2  0  0  0
   -0.5625   -2.6000    0.0000 C   0  0  1  0  0  0
    0.1495   -3.0083    0.0000 C   0  0  2  0  0  0
    0.8615   -2.6000    0.0000 O   0  0
    0.8615   -1.7750    0.0000 C   0  0  1  0  0  0
    0.1495   -1.3583    0.0000 C   0  0  1  0  0  0
   -1.2782   -1.3646    0.0000 O   0  0
   -1.2764   -3.0135    0.0000 O   0  0
    0.1495   -0.5333    0.0000 O   0  0
    0.1495   -3.8333    0.0000 O   0  0
   -0.5650   -0.1208    0.0000 S   0  0
   -1.2795   -0.5333    0.0000 O   0  5
   -0.9834    0.5959    0.0000 O   0  0
   -0.1584    0.5959    0.0000 O   0  0
   -1.9915   -1.7792    0.0000 S   0  0
   -2.7071   -1.3687    0.0000 O   0  5
   -2.4084   -2.4916    0.0000 O   0  0
   -1.5834   -2.4916    0.0000 O   0  0
   -1.2752   -3.8385    0.0000 S   0  0
   -1.9891   -4.2520    0.0000 O   0  5
   -0.4542   -3.8375    0.0000 O   0  0
   -0.8709   -4.5500    0.0000 O   0  0
    1.5772   -1.3646    0.0000 C   0  0
    1.5796   -0.5396    0.0000 O   0  0
    4.4372   -3.0146    0.0000 C   0  0
    5.1529   -2.6042    0.0000 C   0  0
    5.1553   -1.7792    0.0000 C   0  0
    5.8738   -1.3718    0.0000 C   0  0
    5.8766   -0.5476    0.0000 C   0  0
    5.1628   -0.1321    0.0000 C   0  0
    4.4448   -0.5470    0.0000 C   0  0
    4.4455   -1.3698    0.0000 C   0  0
    3.8750    0.6375    0.0000 Na  0  3
   -2.3083    1.6042    0.0000 Na  0  3
   -3.7792   -0.7042    0.0000 Na  0  3
 24 26  1  0
 12 15  2  0
 26 27  1  0
  4  5  1  0
 26 28  2  0
 16 17  1  0
 26 29  2  0
  8  9  1  0
 22 30  1  0
 30 31  1  0
  9 10  2  0
 30 32  2  0
  5  6  1  0
 30 33  2  0
  9 11  1  0
  3  4  1  0
 23 34  1  0
 16 21  1  0
 34 35  1  0
 17 18  1  0
 34 36  2  0
 18 19  1  0
 34 37  2  0
 19 20  1  0
 20 21  1  0
 20 38  1  1
  5  7  2  0
 38 39  1  0
 39 12  1  0
 25  2  1  0
 16 22  1  1
  8 40  1  0
 12 13  1  0
 40 41  1  0
 17 23  1  1
 41 42  1  0
  2  3  1  0
 42 43  2  0
 21 24  1  6
 43 44  1  0
 12 14  2  0
 44 45  2  0
 18 25  1  6
 45 46  1  0
  6  8  1  0
 46 47  2  0
 47 42  1  0
M  CHG  8   1   1  13  -1  27  -1  31  -1  35  -1  48   1  49   1  50   1
M  END