
  SciTegic12201615412D

 30 31  0  0  0  0            999 V2000
    1.2990   -0.7500    0.0000 C   0  0
    1.2990    0.7500    0.0000 C   0  0
    0.0000    1.5000    0.0000 N   0  0
   -1.2990    0.7500    0.0000 C   0  0
   -1.2990   -0.7500    0.0000 C   0  0
    0.0000   -1.5000    0.0000 C   0  0
   -2.5972   -1.5031    0.0000 C   0  0
   -2.5951   -3.0039    0.0000 N   0  0
   -3.8933   -3.7570    0.0000 C   0  0
   -3.8912   -5.2578    0.0000 C   0  0
   -4.9336   -3.1588    0.0000 O   0  0
   -5.1894   -6.0109    0.0000 C   0  0
   -5.1872   -7.5117    0.0000 S   0  0
   -6.4854   -8.2648    0.0000 C   0  0
   -6.4833   -9.7657    0.0000 C   0  0  1  0  0  0
   -5.1838  -10.5165    0.0000 N   0  0
   -3.8833   -9.7673    0.0000 C   0  0
   -2.5838  -10.5181    0.0000 O   0  0
   -3.8825   -8.5673    0.0000 O   0  0
   -1.2833   -9.7689    0.0000 C   0  0
   -0.2443  -10.3693    0.0000 C   0  0
   -1.2826   -8.5689    0.0000 C   0  0
   -0.2438   -9.1694    0.0000 C   0  0
   -7.7815  -10.5188    0.0000 C   0  0
   -7.7793  -12.0196    0.0000 C   0  0
   -9.0758  -12.7742    0.0000 C   0  0
   -9.0706  -14.2742    0.0000 C   0  0
   -7.7689  -15.0197    0.0000 C   0  0
   -6.4725  -14.2652    0.0000 C   0  0
   -6.4777  -12.7652    0.0000 C   0  0
  1  2  2  0
  2  3  1  0
  3  4  2  0
  4  5  1  0
  5  6  2  0
  6  1  1  0
  5  7  1  0
  7  8  1  0
  8  9  1  0
  9 10  1  0
  9 11  2  0
 10 12  1  0
 12 13  1  0
 13 14  1  0
 14 15  1  0
 15 16  1  0
 16 17  1  0
 17 18  1  0
 17 19  2  0
 18 20  1  0
 20 21  1  0
 20 22  1  0
 20 23  1  0
 15 24  1  1
 24 25  1  0
 25 26  1  0
 25 30  1  0
 26 27  1  0
 27 28  1  0
 28 29  1  0
 29 30  1  0
M  END