
  CDK    9/16/09,9:47

 41 44  0  0  0  0  0  0  0  0999 V2000
    2.0384  -23.3628    0.0000 C   0  0  0  0  0  0  0  0  0  0  0  0
    1.5557  -22.6937    0.0000 N   0  0  0  0  0  0  0  0  0  0  0  0
    0.7713  -22.9477    0.0000 C   0  0  0  0  0  0  0  0  0  0  0  0
    2.8592  -23.3663    0.0000 C   0  0  0  0  0  0  0  0  0  0  0  0
    3.2733  -24.0781    0.0000 C   0  0  0  0  0  0  0  0  0  0  0  0
    4.1005  -24.0802    0.0000 C   0  0  0  0  0  0  0  0  0  0  0  0
    4.5154  -24.7887    0.0000 C   0  0  0  0  0  0  0  0  0  0  0  0
    5.3405  -24.7926    0.0000 C   0  0  0  0  0  0  0  0  0  0  0  0
    5.7546  -25.5002    0.0000 C   0  0  0  0  0  0  0  0  0  0  0  0
    6.5827  -25.5014    0.0000 C   0  0  0  0  0  0  0  0  0  0  0  0
    6.9926  -26.2149    0.0000 O   0  0  0  0  0  0  0  0  0  0  0  0
    6.9956  -24.7853    0.0000 O   0  0  0  0  0  0  0  0  0  0  0  0
    4.5155  -23.3621    0.0000 O   0  0  0  0  0  0  0  0  0  0  0  0
    5.7536  -24.0746    0.0000 O   0  0  0  0  0  0  0  0  0  0  0  0
    0.0620  -22.5258    0.0000 C   0  0  0  0  0  0  0  0  0  0  0  0
   -0.6637  -22.9362    0.0000 N   0  0  0  0  0  0  0  0  0  0  0  0
    0.0688  -21.6975    0.0000 O   0  0  0  0  0  0  0  0  0  0  0  0
    1.5443  -24.0278    0.0000 C   0  0  0  0  0  0  0  0  0  0  0  0
    0.7655  -23.7750    0.0000 C   0  0  0  0  0  0  0  0  0  0  0  0
    0.0436  -24.1952    0.0000 C   0  0  0  0  0  0  0  0  0  0  0  0
    1.5406  -24.8478    0.0000 C   0  0  0  0  0  0  0  0  0  0  0  0
    0.8228  -25.2546    0.0000 C   0  0  0  0  0  0  0  0  0  0  0  0
    0.8172  -26.0779    0.0000 C   0  0  0  0  0  0  0  0  0  0  0  0
    1.5287  -26.4953    0.0000 C   0  0  0  0  0  0  0  0  0  0  0  0
    2.2473  -26.0835    0.0000 C   0  0  0  0  0  0  0  0  0  0  0  0
    2.2494  -25.2615    0.0000 C   0  0  0  0  0  0  0  0  0  0  0  0
    1.5246  -27.3194    0.0000 F   0  0  0  0  0  0  0  0  0  0  0  0
   -0.6783  -23.7780    0.0000 C   0  0  0  0  0  0  0  0  0  0  0  0
   -1.3997  -24.1971    0.0000 C   0  0  0  0  0  0  0  0  0  0  0  0
   -1.3976  -25.0329    0.0000 C   0  0  0  0  0  0  0  0  0  0  0  0
   -0.6680  -25.4480    0.0000 C   0  0  0  0  0  0  0  0  0  0  0  0
    0.0502  -25.0266    0.0000 C   0  0  0  0  0  0  0  0  0  0  0  0
   -1.3736  -22.5179    0.0000 C   0  0  0  0  0  0  0  0  0  0  0  0
    1.8120  -21.9105    0.0000 C   0  0  0  0  0  0  0  0  0  0  0  0
   -1.3637  -21.6946    0.0000 C   0  0  0  0  0  0  0  0  0  0  0  0
   -2.0729  -21.2763    0.0000 C   0  0  0  0  0  0  0  0  0  0  0  0
   -2.7912  -21.6820    0.0000 C   0  0  0  0  0  0  0  0  0  0  0  0
   -2.7959  -22.5104    0.0000 C   0  0  0  0  0  0  0  0  0  0  0  0
   -2.0861  -22.9249    0.0000 C   0  0  0  0  0  0  0  0  0  0  0  0
   -2.1094  -25.4481    0.0000 F   0  0  0  0  0  0  0  0  0  0  0  0
   -3.5118  -22.9185    0.0000 C   0  0  0  0  0  0  0  0  0  0  0  0
  2  3  1  0  0  0  0 
  3 19  2  0  0  0  0 
 21 22  2  0  0  0  0 
  1  4  1  0  0  0  0 
 22 23  1  0  0  0  0 
  4  5  1  0  0  0  0 
 23 24  2  0  0  0  0 
  5  6  1  0  0  0  0 
 24 25  1  0  0  0  0 
  6  7  1  0  0  0  0 
 25 26  2  0  0  0  0 
 26 21  1  0  0  0  0 
 18 21  1  0  0  0  0 
  7  8  1  0  0  0  0 
 24 27  1  0  0  0  0 
  8  9  1  0  0  0  0 
 20 28  2  0  0  0  0 
  9 10  1  0  0  0  0 
 28 29  1  0  0  0  0 
 10 11  1  0  0  0  0 
 29 30  2  0  0  0  0 
 10 12  2  0  0  0  0 
 30 31  1  0  0  0  0 
  6 13  1  1  0  0  0 
 31 32  2  0  0  0  0 
 32 20  1  0  0  0  0 
  8 14  1  1  0  0  0 
 16 33  1  0  0  0  0 
  3 15  1  0  0  0  0 
  2 34  1  0  0  0  0 
 15 16  1  0  0  0  0 
 33 35  2  0  0  0  0 
 15 17  2  0  0  0  0 
 35 36  1  0  0  0  0 
 18 19  1  0  0  0  0 
 36 37  2  0  0  0  0 
 37 38  1  0  0  0  0 
 18  1  2  0  0  0  0 
 38 39  2  0  0  0  0 
 39 33  1  0  0  0  0 
  1  2  1  0  0  0  0 
 30 40  1  0  0  0  0 
 19 20  1  0  0  0  0 
 38 41  1  0  0  0  0 
M  END