
  SciTegic03291108502D

 25 27  0  0  0  0            999 V2000
    1.9153   -0.8096    0.0000 S   0  0
    4.0587   -0.3971    0.0000 O   0  0
    1.9977    3.1414    0.0000 O   0  0
    2.9539    2.0795    0.0000 O   0  0
    1.1146    0.4234    0.0000 N   0  0
    0.4471   -0.7326    0.0000 N   0  0
    0.3076    0.5949    0.0000 C   0  0
   -0.1049   -0.1195    0.0000 C   0  0
    1.2008   -0.3971    0.0000 C   0  0
   -0.1049    1.3094    0.0000 C   0  0
   -0.9299   -0.1195    0.0000 C   0  0
    1.7277    0.9754    0.0000 C   0  0
   -0.9299    1.3094    0.0000 C   0  0
   -1.3424    0.5949    0.0000 C   0  0
    1.5561    1.7824    0.0000 C   0  0
    2.6297   -0.3971    0.0000 C   0  0
    4.7732   -0.8096    0.0000 C   0  0
    3.3442   -0.8096    0.0000 C   0  0
    5.4876   -0.3971    0.0000 C   0  0
    2.1692    2.3344    0.0000 C   0  0
    4.7732   -1.6346    0.0000 C   0  0
    6.2021   -0.8096    0.0000 C   0  0
    5.4876   -2.0471    0.0000 C   0  0
    6.2021   -1.6346    0.0000 C   0  0
    5.4876    0.4279    0.0000 C   0  0
  1  9  1  0
  1 16  1  0
  2 17  1  0
  2 18  1  0
  3 20  2  0
  4 20  1  0
  5  7  1  0
  5  9  1  0
  5 12  1  0
  6  8  1  0
  6  9  2  0
  7  8  1  0
  7 10  2  0
  8 11  2  0
 10 13  1  0
 11 14  1  0
 12 15  1  0
 13 14  2  0
 15 20  1  0
 16 18  1  0
 17 19  1  0
 17 21  2  0
 19 22  2  0
 19 25  1  0
 21 23  1  0
 22 24  1  0
 23 24  2  0
M  END