
  SciTegic06051315212D

 33 38  0  0  0  0            999 V2000
   10.0099  -23.6168    0.0000 C   0  0
   10.0087  -24.4448    0.0000 N   0  0
   10.7241  -24.8580    0.0000 C   0  0
   11.4410  -24.4442    0.0000 C   0  0
   11.4381  -23.6132    0.0000 C   0  0
   10.7223  -23.2037    0.0000 C   0  0
   12.0900  -23.1063    0.0000 N   0  0
   12.8384  -21.9973    0.0000 N   0  0
   12.0622  -22.2802    0.0000 C   0  0
   13.3469  -22.6492    0.0000 C   0  0
   12.8827  -23.3310    0.0000 C   0  0
   13.2413  -24.0718    0.0000 C   0  0
   14.0638  -24.1319    0.0000 C   0  0
   14.5264  -23.4451    0.0000 C   0  0
   14.1652  -22.7072    0.0000 C   0  0
   10.7239  -25.6836    0.0000 N   0  0
   10.0087  -26.0961    0.0000 C   0  0
   11.3318  -21.8990    0.0000 C   0  0
   11.3010  -21.0728    0.0000 C   0  0
    9.9069  -21.9578    0.0000 C   0  0
   10.6370  -22.3386    0.0000 C   0  0
    9.8719  -21.1286    0.0000 C   0  0
   10.5738  -20.6888    0.0000 C   0  0
   10.5428  -19.8631    0.0000 C   0  0
    9.8109  -19.4761    0.0000 C   0  0
    9.1086  -19.9209    0.0000 C   0  0
    9.1429  -20.7452    0.0000 C   0  0
    9.2950  -25.6848    0.0000 C   0  0
    8.5821  -26.0939    0.0000 C   0  0
    8.5777  -26.9198    0.0000 O   0  0
    9.2923  -27.3350    0.0000 C   0  0
   10.0115  -26.9243    0.0000 C   0  0
   15.3499  -23.5019    0.0000 O   0  0
  1  2  2  0
  2  3  1  0
  3  4  2  0
  4  5  1  0
  5  6  2  0
  6  1  1  0
  5  7  1  0
  7 11  1  0
 10  8  1  0
  8  9  2  0
  9  7  1  0
 10 11  2  0
 11 12  1  0
 12 13  2  0
 13 14  1  0
 14 15  2  0
 15 10  1  0
  3 16  1  0
 16 17  1  0
 18 19  2  0
 19 23  1  0
 22 20  1  0
 20 21  2  0
 21 18  1  0
  9 18  1  0
 22 23  1  0
 23 24  2  0
 24 25  1  0
 25 26  2  0
 26 27  1  0
 27 22  2  0
 17 28  1  0
 17 32  1  0
 28 29  1  0
 29 30  1  0
 30 31  1  0
 31 32  1  0
 14 33  1  0
M  END