
  SciTegic05171617262D

 32 37  0  0  0  0            999 V2000
    1.3870   10.4165    0.0000 C   0  0
    0.7799    9.3813    0.0000 C   0  0
   -0.7150    9.3948    0.0000 C   0  0
   -1.4926    8.0891    0.0000 C   0  0
   -0.7385    6.7878    0.0000 C   0  0
   -1.2071    5.3698    0.0000 O   0  0
    0.0051    4.5042    0.0000 C   0  0
    1.1994    5.3481    0.0000 N   0  0
    0.7564    6.7743    0.0000 C   0  0
    1.5338    8.0618    0.0000 C   0  0
    0.0000    3.0035    0.0000 N   0  0
    1.2785    2.2729    0.0000 C   0  0
    1.2785    0.7306    0.0000 C   0  0
    0.0000    0.0000    0.0000 C   0  0
   -1.2988   -0.7509    0.0000 C   0  0
   -1.2988   -2.2526    0.0000 C   0  0
    0.0000   -3.0238    0.0000 C   0  0
    1.2785   -2.2526    0.0000 C   0  0
    2.3234   -2.8426    0.0000 O   0  0
    1.2785   -0.7509    0.0000 N   0  0
    2.5801   -0.0033    0.0000 C   0  0
    3.8787   -0.7558    0.0000 C   0  0
    3.8856   -2.2735    0.0000 C   0  0
    5.1813   -3.0194    0.0000 C   0  0
    6.4998   -2.2638    0.0000 C   0  0
    6.4820   -0.7599    0.0000 C   0  0
    7.5866    0.2452    0.0000 N   0  0
    6.9645    1.6131    0.0000 C   0  0
    5.5009    1.4459    0.0000 C   0  0
    5.1864   -0.0140    0.0000 C   0  0
   -1.2988    0.7306    0.0000 C   0  0
   -1.2988    2.2729    0.0000 C   0  0
  1  2  1  0
  2  3  2  0
  3  4  1  0
  4  5  2  0
  5  6  1  0
  6  7  1  0
  7  8  2  0
  8  9  1  0
  5  9  1  0
  9 10  2  0
  2 10  1  0
  7 11  1  0
 11 12  1  0
 12 13  1  0
 13 14  1  0
 14 15  1  0
 15 16  1  0
 16 17  1  0
 17 18  1  0
 18 19  2  0
 18 20  1  0
 14 20  1  0
 20 21  1  0
 21 22  1  0
 22 23  1  0
 23 24  2  0
 24 25  1  0
 25 26  2  0
 26 27  1  0
 27 28  1  0
 28 29  2  0
 29 30  1  0
 22 30  2  0
 26 30  1  0
 14 31  1  0
 31 32  1  0
 11 32  1  0
M  END