
          02060813482D 1   1.00000     0.00000     0

 16 18  0     0  0            999 V2000
    6.1262    1.5452    0.0000 C   0  0  0  0  0  0           0  0  0
    6.5342    0.8252    0.0000 C   0  0  0  0  0  0           0  0  0
    7.3599    0.8195    0.0000 C   0  0  0  0  0  0           0  0  0
    7.7785    1.5331    0.0000 C   0  0  0  0  0  0           0  0  0
    7.3655    2.2539    0.0000 C   0  0  0  0  0  0           0  0  0
    6.5412    2.2560    0.0000 C   0  0  0  0  0  0           0  0  0
    8.6037    1.5288    0.0000 Cl  0  0  0  0  0  0           0  0  0
    5.3011    1.5505    0.0000 N   0  0  3  0  0  0           0  0  0
    4.6367    2.0372    0.0000 C   0  0  0  0  0  0           0  0  0
    3.9704    1.5505    0.0000 C   0  0  0  0  0  0           0  0  0
    5.0525    0.7684    0.0000 C   0  0  0  0  0  0           0  0  0
    4.2274    0.7682    0.0000 C   0  0  0  0  0  0           0  0  0
    3.8169    0.0546    0.0000 C   0  0  0  0  0  0           0  0  0
    4.2304   -0.6592    0.0000 C   0  0  0  0  0  0           0  0  0
    5.0586   -0.6549    0.0000 C   0  0  0  0  0  0           0  0  0
    5.4653    0.0592    0.0000 C   0  0  0  0  0  0           0  0  0
  1  8  1  0     0  0
  8  9  1  0     0  0
  4  5  1  0     0  0
  9 10  2  0     0  0
 10 12  1  0     0  0
 11  8  1  0     0  0
  2  3  1  0     0  0
  5  6  2  0     0  0
 11 12  2  0     0  0
  6  1  1  0     0  0
 12 13  1  0     0  0
  1  2  2  0     0  0
 13 14  2  0     0  0
  4  7  1  0     0  0
 14 15  1  0     0  0
  3  4  2  0     0  0
 15 16  2  0     0  0
 16 11  1  0     0  0
M  END