
  SciTegic01161211232D

 20 21  0  0  0  0            999 V2000
   11.3652   -4.5791    0.0000 C   0  0
   11.3641   -5.4065    0.0000 C   0  0
   12.0789   -5.8194    0.0000 C   0  0
   12.0771   -4.1664    0.0000 C   0  0
   12.7925   -4.5755    0.0000 C   0  0
   12.7932   -5.4023    0.0000 C   0  0
   13.5085   -5.8133    0.0000 C   0  0
   14.2236   -5.3985    0.0000 N   0  0
   14.2188   -4.5686    0.0000 C   0  0
   13.5029   -4.1613    0.0000 C   0  0
   13.4985   -3.3364    0.0000 O   0  0
   13.5103   -6.6383    0.0000 Cl  0  0
   14.9307   -4.1517    0.0000 C   0  0
   15.6477   -4.5599    0.0000 N   0  0
   14.9257   -3.3267    0.0000 O   0  0
   16.3597   -4.1430    0.0000 C   0  0  2  0  0  0
   17.0766   -4.5512    0.0000 C   0  0
   17.7886   -4.1343    0.0000 O   0  0
   17.0816   -5.3761    0.0000 O   0  0
   16.3546   -3.3180    0.0000 C   0  0
  9 10  2  0
 10  5  1  0
 10 11  1  0
  2  3  1  0
  7 12  1  0
  5  6  1  0
  9 13  1  0
  3  6  2  0
 13 14  1  0
  6  7  1  0
 13 15  2  0
  1  2  2  0
 14 16  1  0
  7  8  2  0
 16 17  1  0
  5  4  2  0
 17 18  1  0
  8  9  1  0
 17 19  2  0
  4  1  1  0
 16 20  1  1
M  END