
  Mrv0541 04051115152D          

 38 42  0  0  0  0            999 V2000
    2.7930    3.9213    0.0000 C   0  0  0  0  0  0  0  0  0  0  0  0
    2.7930    3.0963    0.0000 C   0  0  0  0  0  0  0  0  0  0  0  0
    2.0785    2.6838    0.0000 C   0  0  0  0  0  0  0  0  0  0  0  0
    1.3641    3.0963    0.0000 N   0  0  0  0  0  0  0  0  0  0  0  0
    2.0785    4.3338    0.0000 N   0  0  0  0  0  0  0  0  0  0  0  0
   -4.9567   -2.9328    0.0000 C   0  0  0  0  0  0  0  0  0  0  0  0
   -4.3436   -2.3808    0.0000 C   0  0  0  0  0  0  0  0  0  0  0  0
   -3.5590   -2.6357    0.0000 C   0  0  0  0  0  0  0  0  0  0  0  0
   -4.5151   -1.5738    0.0000 C   0  0  0  0  0  0  0  0  0  0  0  0
   -3.9020   -1.0217    0.0000 C   0  0  0  0  0  0  0  0  0  0  0  0
   -3.1174   -1.2767    0.0000 C   0  0  0  0  0  0  0  0  0  0  0  0
   -2.9459   -2.0837    0.0000 C   0  0  0  0  0  0  0  0  0  0  0  0
   -2.1613   -2.3386    0.0000 N   0  0  0  0  0  0  0  0  0  0  0  0
   -1.9063   -3.1232    0.0000 N   0  0  0  0  0  0  0  0  0  0  0  0
   -1.0813   -3.1232    0.0000 C   0  0  0  0  0  0  0  0  0  0  0  0
   -0.5964   -3.7907    0.0000 C   0  0  0  0  0  0  0  0  0  0  0  0
    0.0710   -3.3057    0.0000 C   0  0  0  0  0  0  0  0  0  0  0  0
   -0.1115   -4.4581    0.0000 C   0  0  0  0  0  0  0  0  0  0  0  0
   -1.2638   -4.2756    0.0000 C   0  0  0  0  0  0  0  0  0  0  0  0
   -0.8264   -2.3386    0.0000 C   0  0  0  0  0  0  0  0  0  0  0  0
   -1.4938   -1.8537    0.0000 C   0  0  0  0  0  0  0  0  0  0  0  0
   -1.4938   -1.0287    0.0000 N   0  0  0  0  0  0  0  0  0  0  0  0
   -0.7793   -0.6162    0.0000 C   0  0  0  0  0  0  0  0  0  0  0  0
   -0.0649   -1.0287    0.0000 O   0  0  0  0  0  0  0  0  0  0  0  0
   -0.7793    0.2088    0.0000 N   0  0  0  0  0  0  0  0  0  0  0  0
   -0.0649    0.6213    0.0000 C   0  0  0  0  0  0  0  0  0  0  0  0
   -0.0649    1.4463    0.0000 C   0  0  0  0  0  0  0  0  0  0  0  0
    0.6496    1.8588    0.0000 C   0  0  0  0  0  0  0  0  0  0  0  0
    0.6496    0.2088    0.0000 C   0  0  0  0  0  0  0  0  0  0  0  0
    1.3641    0.6213    0.0000 C   0  0  0  0  0  0  0  0  0  0  0  0
    1.3641    1.4463    0.0000 C   0  0  0  0  0  0  0  0  0  0  0  0
    2.0785    1.8588    0.0000 N   0  0  0  0  0  0  0  0  0  0  0  0
    3.5075    2.6838    0.0000 C   0  0  0  0  0  0  0  0  0  0  0  0
    4.2220    3.0963    0.0000 C   0  0  0  0  0  0  0  0  0  0  0  0
    4.9364    2.6838    0.0000 N   0  0  0  0  0  0  0  0  0  0  0  0
    4.2220    3.9213    0.0000 C   0  0  0  0  0  0  0  0  0  0  0  0
    3.5075    4.3338    0.0000 C   0  0  0  0  0  0  0  0  0  0  0  0
    1.3641    3.9213    0.0000 C   0  0  0  0  0  0  0  0  0  0  0  0
  1 37  2  0  0  0  0
  1  2  1  0  0  0  0
  1  5  1  0  0  0  0
  2 33  2  0  0  0  0
  2  3  1  0  0  0  0
  3 32  1  0  0  0  0
  3  4  2  0  0  0  0
 38  4  1  0  0  0  0
 38  5  2  0  0  0  0
  6  7  1  0  0  0  0
  8  7  2  0  0  0  0
  9  7  1  0  0  0  0
  8 12  1  0  0  0  0
 10  9  2  0  0  0  0
 10 11  1  0  0  0  0
 11 12  2  0  0  0  0
 12 13  1  0  0  0  0
 14 13  1  0  0  0  0
 21 13  1  0  0  0  0
 15 14  2  0  0  0  0
 15 16  1  0  0  0  0
 20 15  1  0  0  0  0
 18 16  1  0  0  0  0
 17 16  1  0  0  0  0
 19 16  1  0  0  0  0
 20 21  2  0  0  0  0
 21 22  1  0  0  0  0
 23 22  1  0  0  0  0
 23 24  2  0  0  0  0
 23 25  1  0  0  0  0
 26 25  1  0  0  0  0
 29 26  2  0  0  0  0
 27 26  1  0  0  0  0
 27 28  2  0  0  0  0
 28 31  1  0  0  0  0
 29 30  1  0  0  0  0
 30 31  2  0  0  0  0
 31 32  1  0  0  0  0
 33 34  1  0  0  0  0
 34 35  1  0  0  0  0
 36 34  2  0  0  0  0
 36 37  1  0  0  0  0
M  END