
  SciTegic06051315212D

 33 38  0  0  0  0            999 V2000
   12.3873  -15.6952    0.0000 C   0  0
   11.8128  -19.4441    0.0000 C   0  0
   15.5789  -18.0418    0.0000 C   0  0
   14.3058  -18.6666    0.0000 C   0  0
   13.9071  -16.6125    0.0000 N   0  0
   12.5218  -18.2116    0.0000 C   0  0
    9.6954  -20.6658    0.0000 C   0  0
   11.1119  -21.4825    0.0000 C   0  0
    9.6948  -21.4841    0.0000 O   0  0
   11.7291  -16.9490    0.0000 C   0  0
   15.1200  -18.7273    0.0000 C   0  0
   11.8111  -17.8064    0.0000 C   0  0
   13.9520  -17.9349    0.0000 C   0  0
   10.4055  -21.8928    0.0000 C   0  0
   12.4184  -16.5133    0.0000 C   0  0
   12.5246  -19.0345    0.0000 N   0  0
   13.1397  -16.8900    0.0000 C   0  0
   10.4006  -20.2580    0.0000 C   0  0
   11.1080  -18.2154    0.0000 C   0  0
   14.4125  -17.2545    0.0000 C   0  0
   13.1678  -17.7080    0.0000 N   0  0
   15.2225  -17.3130    0.0000 C   0  0
   11.1069  -20.6700    0.0000 C   0  0
   11.0040  -16.5726    0.0000 C   0  0
   11.1069  -19.0350    0.0000 N   0  0
   11.8126  -20.2615    0.0000 N   0  0
   10.9701  -15.7568    0.0000 C   0  0
   11.6651  -15.3158    0.0000 C   0  0
   11.6298  -14.4953    0.0000 C   0  0
   10.9001  -14.1148    0.0000 C   0  0
   10.2046  -14.5609    0.0000 C   0  0
   10.2434  -15.3799    0.0000 C   0  0
   16.3943  -18.0970    0.0000 O   0  0
  2 26  1  0
 21 13  1  0
 16  6  1  0
 20  5  1  0
 19 25  2  0
  6 12  2  0
 17 21  1  0
 11  3  1  0
 24 10  2  0
 23 26  1  0
  6 21  1  0
  8 23  1  0
  2 16  2  0
 14  8  1  0
  7  9  1  0
 15  1  2  0
 17 15  1  0
 10 15  1  0
  5 17  2  0
  3 22  2  0
 25  2  1  0
  1 28  1  0
 23 18  1  0
  9 14  1  0
 22 20  1  0
 18  7  1  0
 12 19  1  0
  4 11  2  0
 20 13  2  0
 27 24  1  0
 13  4  1  0
 27 28  1  0
 28 29  2  0
 29 30  1  0
 30 31  2  0
 31 32  1  0
 32 27  2  0
  3 33  1  0
M  END