
          05080814042D 1   1.00000     0.00000     0

 37 42  0     1  0            999 V2000
    7.6230    2.9705    0.0000 C   0  0  0  0  0  0           0  0  0
    6.9125    2.5558    0.0000 C   0  0  0  0  0  0           0  0  0
    6.9195    1.7299    0.0000 C   0  0  0  0  0  0           0  0  0
    7.6331    1.3266    0.0000 C   0  0  0  0  0  0           0  0  0
    8.3359    2.5635    0.0000 C   0  0  0  0  0  0           0  0  0
    8.3419    1.7362    0.0000 C   0  0  0  0  0  0           0  0  0
    9.0574    1.3301    0.0000 C   0  0  0  0  0  0           0  0  0
    9.0454    2.9846    0.0000 C   0  0  0  0  0  0           0  0  0
    9.7654    2.5740    0.0000 C   0  0  2  0  0  0           0  0  0
    9.7700    1.7448    0.0000 C   0  0  2  0  0  0           0  0  0
   10.4863    1.3363    0.0000 N   0  0  3  0  0  0           0  0  0
   11.2029    1.7526    0.0000 C   0  0  0  0  0  0           0  0  0
   11.1983    2.5818    0.0000 C   0  0  1  0  0  0           0  0  0
   10.4772    2.9948    0.0000 C   0  0  0  0  0  0           0  0  0
    9.7576    3.4025    0.0000 H   0  0  0  0  0  0           0  0  0
    9.7618    0.9203    0.0000 H   0  0  0  0  0  0           0  0  0
   11.9105    2.9973    0.0000 C   0  0  0  0  0  0           0  0  0
   12.6265    2.5882    0.0000 N   0  0  3  0  0  0           0  0  0
   11.9068    3.8219    0.0000 O   0  0  0  0  0  0           0  0  0
   12.6242    1.7604    0.0000 C   0  0  0  0  0  0           0  0  0
   13.3360    1.3514    0.0000 C   0  0  0  0  0  0           0  0  0
   14.0507    1.7634    0.0000 N   0  0  3  0  0  0           0  0  0
   14.0490    2.5890    0.0000 C   0  0  0  0  0  0           0  0  0
   13.3326    3.0025    0.0000 C   0  0  0  0  0  0           0  0  0
    7.6190    3.7951    0.0000 O   0  0  0  0  0  0           0  0  0
    6.9029    4.2085    0.0000 C   0  0  0  0  0  0           0  0  0
   10.4897    0.5118    0.0000 C   0  0  0  0  0  0           0  0  0
   14.7651    1.3516    0.0000 C   0  0  0  0  0  0           0  0  0
   14.7612    0.5278    0.0000 C   0  0  0  0  0  0           0  0  0
   15.4747    0.1161    0.0000 C   0  0  0  0  0  0           0  0  0
   15.4722    1.7658    0.0000 N   0  0  0  0  0  0           0  0  0
   16.1864    1.3578    0.0000 C   0  0  0  0  0  0           0  0  0
   16.1893    0.5307    0.0000 C   0  0  0  0  0  0           0  0  0
   16.9058    0.1215    0.0000 C   0  0  0  0  0  0           0  0  0
   17.6199    0.5382    0.0000 C   0  0  0  0  0  0           0  0  0
   17.6130    1.3684    0.0000 C   0  0  0  0  0  0           0  0  0
   16.8959    1.7739    0.0000 C   0  0  0  0  0  0           0  0  0
  7 10  1  0     0  0
 17 18  1  0     0  0
  9  8  1  0     0  0
 17 19  2  0     0  0
 18 20  1  0     0  0
  9 10  1  0     0  0
  3  4  2  0     0  0
  4  6  1  0     0  0
  5  6  2  0     0  0
  1  2  2  0     0  0
 18 24  1  0     0  0
 20 21  1  0     0  0
 21 22  1  0     0  0
 22 23  1  0     0  0
 23 24  1  0     0  0
  5  1  1  0     0  0
  1 25  1  0     0  0
  2  3  1  0     0  0
 25 26  1  0     0  0
  9 14  1  0     0  0
 11 27  1  0     0  0
 10 11  1  0     0  0
 22 28  1  0     0  0
 11 12  1  0     0  0
 28 29  2  0     0  0
 12 13  1  0     0  0
 29 30  1  0     0  0
 30 33  2  0     0  0
 13 14  1  0     0  0
 32 31  2  0     0  0
 31 28  1  0     0  0
  9 15  1  6     0  0
 32 33  1  0     0  0
  5  8  1  0     0  0
 33 34  1  0     0  0
 10 16  1  1     0  0
 34 35  2  0     0  0
  6  7  1  0     0  0
 35 36  1  0     0  0
 13 17  1  1     0  0
 36 37  2  0     0  0
 37 32  1  0     0  0
M  END