
  CDK    9/16/09,9:50

 38 41  0  0  0  0  0  0  0  0999 V2000
    3.7089   -1.2982    0.0000 C   0  0  0  0  0  0  0  0  0  0  0  0
    4.4256   -1.7069    0.0000 C   0  0  0  0  0  0  0  0  0  0  0  0
   -1.3142    0.7341    0.0000 C   0  0  0  0  0  0  0  0  0  0  0  0
   -0.5995    1.1508    0.0000 C   0  0  0  0  0  0  0  0  0  0  0  0
   -0.6039    1.9762    0.0000 C   0  0  0  0  0  0  0  0  0  0  0  0
   -1.3224    2.3860    0.0000 C   0  0  0  0  0  0  0  0  0  0  0  0
   -2.0379    1.9643    0.0000 C   0  0  0  0  0  0  0  0  0  0  0  0
   -2.0299    1.1402    0.0000 C   0  0  0  0  0  0  0  0  0  0  0  0
   -2.7562    2.3701    0.0000 O   0  0  0  0  0  0  0  0  0  0  0  0
    0.1207    0.7361    0.0000 C   0  0  0  0  0  0  0  0  0  0  0  0
   -1.3094   -0.0909    0.0000 C   0  0  0  0  0  0  0  0  0  0  0  0
    0.1083    2.3926    0.0000 C   0  0  0  0  0  0  0  0  0  0  0  0
    0.1278   -0.0889    0.0000 C   0  0  0  0  0  0  0  0  0  0  0  0
   -0.5831   -0.5075    0.0000 N   0  0  0  0  0  0  0  0  0  0  0  0
    0.8458   -0.4952    0.0000 C   0  0  0  0  0  0  0  0  0  0  0  0
    1.5600   -0.0767    0.0000 O   0  0  0  0  0  0  0  0  0  0  0  0
    0.8520   -1.3202    0.0000 N   0  0  0  0  0  0  0  0  0  0  0  0
    0.1343   -1.7364    0.0000 C   0  0  0  0  0  0  0  0  0  0  0  0
    1.5674   -2.5522    0.0000 C   0  0  0  0  0  0  0  0  0  0  0  0
    1.5648   -1.7245    0.0000 C   0  0  0  0  0  0  0  0  0  0  0  0
    0.8542   -2.9688    0.0000 C   0  0  0  0  0  0  0  0  0  0  0  0
    0.1433   -2.5559    0.0000 C   0  0  0  0  0  0  0  0  0  0  0  0
   -0.5677   -2.9650    0.0000 C   0  0  0  0  0  0  0  0  0  0  0  0
   -0.5689   -3.7870    0.0000 C   0  0  0  0  0  0  0  0  0  0  0  0
    0.1467   -4.1980    0.0000 C   0  0  0  0  0  0  0  0  0  0  0  0
    0.8548   -3.7865    0.0000 C   0  0  0  0  0  0  0  0  0  0  0  0
    2.2800   -1.3059    0.0000 C   0  0  0  0  0  0  0  0  0  0  0  0
    2.9967   -1.7145    0.0000 N   0  0  0  0  0  0  0  0  0  0  0  0
    2.2755   -0.4809    0.0000 O   0  0  0  0  0  0  0  0  0  0  0  0
    4.4337   -2.5322    0.0000 N   0  0  0  0  0  0  0  0  0  0  0  0
    5.1415   -1.2908    0.0000 O   0  0  0  0  0  0  0  0  0  0  0  0
    3.7233   -2.9516    0.0000 C   0  0  0  0  0  0  0  0  0  0  0  0
    5.1521   -2.9376    0.0000 C   0  0  0  0  0  0  0  0  0  0  0  0
    5.1553   -3.7636    0.0000 C   0  0  0  0  0  0  0  0  0  0  0  0
    5.8730   -4.1690    0.0000 C   0  0  0  0  0  0  0  0  0  0  0  0
    6.5843   -3.7494    0.0000 C   0  0  0  0  0  0  0  0  0  0  0  0
    6.5736   -2.9202    0.0000 C   0  0  0  0  0  0  0  0  0  0  0  0
    5.8554   -2.5186    0.0000 C   0  0  0  0  0  0  0  0  0  0  0  0
 17 20  1  0  0  0  0 
 18 22  1  0  0  0  0 
 21 19  1  0  0  0  0 
 19 20  1  0  0  0  0 
  5  6  2  0  0  0  0 
  3 11  1  0  0  0  0 
 21 22  2  0  0  0  0 
  3  4  2  0  0  0  0 
 22 23  1  0  0  0  0 
  5 12  1  0  0  0  0 
 23 24  2  0  0  0  0 
  6  7  1  0  0  0  0 
 24 25  1  0  0  0  0 
 13 10  1  1  0  0  0 
 25 26  2  0  0  0  0 
 26 21  1  0  0  0  0 
 13 14  1  0  0  0  0 
  7  8  2  0  0  0  0 
 27 28  1  0  0  0  0 
 27 29  2  0  0  0  0 
 20 27  1  6  0  0  0 
 28  1  1  0  0  0  0 
 13 15  1  0  0  0  0 
  8  3  1  0  0  0  0 
  2 30  1  0  0  0  0 
  2 31  2  0  0  0  0 
 15 16  2  0  0  0  0 
 30 32  1  0  0  0  0 
  4  5  1  0  0  0  0 
 30 33  1  0  0  0  0 
 15 17  1  0  0  0  0 
 33 34  2  0  0  0  0 
 17 18  1  0  0  0  0 
 34 35  1  0  0  0  0 
  7  9  1  0  0  0  0 
 35 36  2  0  0  0  0 
  1  2  1  0  0  0  0 
 36 37  1  0  0  0  0 
  4 10  1  0  0  0  0 
 37 38  2  0  0  0  0 
 38 33  1  0  0  0  0 
M  END