
          11280715332D 1   1.00000     0.00000     0

 34 38  0     0  0            999 V2000
    3.7500   -3.1167    0.0000 N   0  0  3  0  0  0           0  0  0
    5.1667   -3.1250    0.0000 C   0  0  3  0  0  0           0  0  0
    3.7417   -2.2917    0.0000 C   0  0  0  0  0  0           0  0  0
    8.3125   -2.1042    0.0000 C   0  0  3  0  0  0           0  0  0
    7.3042   -2.6917    0.0000 N   0  0  3  0  0  0           0  0  0
    9.0250   -1.6875    0.0000 N   0  0  3  0  0  0           0  0  0
    4.4625   -3.5292    0.0000 C   0  0  0  0  0  0           0  0  0
    5.1667   -3.9500    0.0000 C   0  0  0  0  0  0           0  0  0
    8.1042   -2.9042    0.0000 C   0  0  0  0  0  0           0  0  0
    7.5167   -1.9000    0.0000 C   0  0  0  0  0  0           0  0  0
    5.8667   -5.1875    0.0000 C   0  0  0  0  0  0           0  0  0
    5.8667   -4.3625    0.0000 C   0  0  0  0  0  0           0  0  0
    3.0375   -3.5292    0.0000 C   0  0  0  0  0  0           0  0  0
    5.1417   -5.5917    0.0000 C   0  0  0  0  0  0           0  0  0
    5.1750   -2.2917    0.0000 C   0  0  0  0  0  0           0  0  0
    4.4625   -1.8792    0.0000 C   0  0  0  0  0  0           0  0  0
    3.0292   -1.8750    0.0000 O   0  0  0  0  0  0           0  0  0
    5.8792   -2.7042    0.0000 C   0  0  0  0  0  0           0  0  0
    0.8917   -2.2917    0.0000 N   0  0  0  0  0  0           0  0  0
    4.4417   -4.3500    0.0000 C   0  0  0  0  0  0           0  0  0
    4.4375   -5.1750    0.0000 C   0  0  0  0  0  0           0  0  0
    6.6000   -3.1125    0.0000 C   0  0  0  0  0  0           0  0  0
   10.6000   -1.2125    0.0000 O   0  0  0  0  0  0           0  0  0
    6.5792   -5.6042    0.0000 Cl  0  0  0  0  0  0           0  0  0
    5.1417   -6.4167    0.0000 Cl  0  0  0  0  0  0           0  0  0
    2.3167   -3.1167    0.0000 C   0  0  0  0  0  0           0  0  0
    9.2125   -0.8875    0.0000 C   0  0  0  0  0  0           0  0  0
    9.6167   -2.2542    0.0000 C   0  0  0  0  0  0           0  0  0
    0.8917   -3.1167    0.0000 C   0  0  0  0  0  0           0  0  0
    1.6042   -1.8792    0.0000 C   0  0  0  0  0  0           0  0  0
   10.0000   -0.6500    0.0000 C   0  0  0  0  0  0           0  0  0
   10.4125   -2.0167    0.0000 C   0  0  0  0  0  0           0  0  0
    2.3167   -2.2917    0.0000 C   0  0  0  0  0  0           0  0  0
    1.6042   -3.5292    0.0000 C   0  0  0  0  0  0           0  0  0
  2  7  1  0     0  0
  3  1  1  0     0  0
  4 10  1  0     0  0
  5 22  1  0     0  0
  6  4  1  0     0  0
  7  1  1  0     0  0
  8  2  1  0     0  0
  9  5  1  0     0  0
 10  5  1  0     0  0
 11 12  2  0     0  0
 12  8  1  0     0  0
 13  1  1  0     0  0
 14 21  2  0     0  0
 15  2  1  0     0  0
 16  3  1  0     0  0
 17  3  2  0     0  0
 18  2  1  0     0  0
 19 29  2  0     0  0
 20  8  2  0     0  0
 21 20  1  0     0  0
 22 18  1  0     0  0
 23 32  1  0     0  0
 24 11  1  0     0  0
 25 14  1  0     0  0
 26 13  1  0     0  0
 27  6  1  0     0  0
 28  6  1  0     0  0
 29 34  1  0     0  0
 30 33  2  0     0  0
 31 27  1  0     0  0
 32 28  1  0     0  0
 33 26  1  0     0  0
 34 26  2  0     0  0
 15 16  1  0     0  0
 30 19  1  0     0  0
  9  4  1  0     0  0
 11 14  1  0     0  0
 23 31  1  0     0  0
M  END