
  SciTegic04191613082D

182192  0  0  1  0            999 V2000
   -1.5731    7.3375    0.0000 C   0  0
   -0.0960    7.5987    0.0000 N   0  0
    1.4034    7.5573    0.0000 C   0  0
    1.5321    8.5490    0.0000 O   0  0
    2.8638    7.2148    0.0000 C   0  0
    2.3905    7.5997    0.0000 C   0  0
    2.9324    7.3249    0.0000 C   0  0
    1.4932    7.7475    0.0000 C   0  0
    1.6824    8.7294    0.0000 O   0  0
    0.0000    7.8901    0.0000 N   0  0
   -1.4932    7.7475    0.0000 C   0  0  1  0  0  0
   -2.9325    7.3249    0.0000 C   0  0
   -3.3042    8.2533    0.0000 O   0  0
   -4.2657    6.6375    0.0000 N   0  0
   -5.4448    5.7103    0.0000 C   0  0  1  0  0  0
   -6.0486    7.0973    0.0000 C   0  0
   -7.5398    7.2674    0.0000 C   0  0
   -8.1406    8.6419    0.0000 C   0  0
   -9.6313    8.8089    0.0000 C   0  0
  -10.5212    7.6015    0.0000 C   0  0
   -9.9205    6.2270    0.0000 C   0  0
   -8.4299    6.0600    0.0000 C   0  0
  -11.7138    7.7351    0.0000 F   0  0
   -6.4271    4.5767    0.0000 C   0  0
   -7.4046    5.2727    0.0000 O   0  0
   -7.1771    3.2776    0.0000 N   0  0
   -7.6677    1.8601    0.0000 C   0  0  1  0  0  0
   -7.8812    0.3754    0.0000 C   0  0
   -9.0798    0.4325    0.0000 O   0  0
   -7.8098   -1.1229    0.0000 N   0  0
   -7.4561   -2.5806    0.0000 C   0  0  2  0  0  0
   -8.5515   -3.6181    0.0000 C   0  0
   -9.9907   -3.1955    0.0000 C   0  0
  -10.3444   -1.7378    0.0000 C   0  0
   -9.2588   -0.7027    0.0000 C   0  0
   -6.8330   -3.9451    0.0000 C   0  0
   -7.8722   -4.5451    0.0000 O   0  0
   -5.9629   -5.1669    0.0000 N   0  0
   -4.8773   -6.2020    0.0000 C   0  0  1  0  0  0
   -5.8147   -7.3893    0.0000 C   0  0
   -7.3000   -7.1738    0.0000 C   0  0
   -8.2438   -8.3546    0.0000 C   0  0
   -9.7251   -8.1380    0.0000 C   0  0
  -10.6531   -9.3128    0.0000 C   0  0
  -12.1344   -9.0963    0.0000 C   0  0
  -12.6878   -7.7050    0.0000 C   0  0
  -11.7598   -6.5303    0.0000 C   0  0
  -10.2785   -6.7468    0.0000 C   0  0
   -9.3505   -5.5720    0.0000 C   0  0
   -7.8522   -5.7818    0.0000 C   0  0
   -3.6154   -7.0130    0.0000 C   0  0
   -2.2229   -7.5705    0.0000 N   0  0
   -0.7500   -7.8544    0.0000 C   0  0  2  0  0  0
    0.7500   -7.8544    0.0000 C   0  0
    2.2229   -7.5705    0.0000 N   0  0
    3.6155   -7.0130    0.0000 C   0  0  2  0  0  0
    4.8773   -6.2020    0.0000 C   0  0
    5.9629   -5.1669    0.0000 N   0  0
    6.8330   -3.9450    0.0000 C   0  0  1  0  0  0
    7.4561   -2.5806    0.0000 C   0  0
    8.5901   -2.9731    0.0000 O   0  0
    7.8098   -1.1229    0.0000 N   0  0
    7.8812    0.3754    0.0000 C   0  0  2  0  0  0
    7.7440   -1.1192    0.0000 C   0  0
    7.3280   -2.5604    0.0000 N   0  0
    6.6305   -3.8883    0.0000 C   0  0  2  0  0  0
    5.6799   -5.0486    0.0000 C   0  0
    6.5265   -5.8991    0.0000 O   0  0
    4.5152   -5.9939    0.0000 N   0  0
    3.1841   -6.6853    0.0000 C   0  0  2  0  0  0
    1.7410   -7.0946    0.0000 C   0  0
    0.2451   -7.2051    0.0000 N   0  0
   -1.2425   -7.0122    0.0000 C   0  0  1  0  0  0
   -1.5849   -8.4855    0.0000 C   0  0
   -2.7843   -9.3876    0.0000 C   0  0
   -2.6037  -10.8775    0.0000 C   0  0
   -3.8031  -11.7797    0.0000 N   0  0
   -3.6224  -13.2696    0.0000 C   0  0
   -4.5814  -13.9909    0.0000 N   0  0
   -2.5184  -13.7398    0.0000 N   0  0
   -2.6607   -6.5237    0.0000 C   0  0
   -3.9516   -5.7598    0.0000 N   0  0
   -5.0623   -4.7517    0.0000 C   0  0  1  0  0  0
   -5.7707   -6.0881    0.0000 C   0  0
   -4.9745   -7.3604    0.0000 C   0  0
   -5.6773   -8.6865    0.0000 C   0  0
   -4.8811   -9.9587    0.0000 N   0  0
   -5.5839  -11.2848    0.0000 C   0  0
   -4.9473  -12.3020    0.0000 N   0  0
   -6.7831  -11.3279    0.0000 N   0  0
   -5.9474   -3.5406    0.0000 C   0  0
   -6.8103   -4.0459    0.0000 O   0  0
   -6.5705   -2.1762    0.0000 N   0  0
   -6.9062   -0.7142    0.0000 C   0  0  2  0  0  0
   -6.9408    0.7854    0.0000 C   0  0
   -6.6727    2.2612    0.0000 N   0  0
   -6.1131    3.6529    0.0000 C   0  0  2  0  0  0
   -5.2848    4.9035    0.0000 C   0  0
   -4.2217    5.9617    0.0000 N   0  0
   -2.9674    6.7843    0.0000 C   0  0  2  0  0  0
   -4.0796    7.8093    0.0000 C   0  0
   -5.0341    7.5110    0.0000 O   0  0
   -3.7516    9.2738    0.0000 N   0  0
   -4.8552   10.2909    0.0000 C   0  0  1  0  0  0
   -4.5271   11.7554    0.0000 C   0  0
   -5.6308   12.7725    0.0000 C   0  0
   -5.3027   14.2370    0.0000 C   0  0
   -6.4064   15.2541    0.0000 C   0  0
   -6.1440   16.4251    0.0000 N   0  0
   -6.2886    9.8462    0.0000 C   0  0
   -6.5534    8.6757    0.0000 O   0  0
   -7.1702   10.6604    0.0000 O   0  0
   -6.2131    5.6640    0.0000 O   0  0
   -7.4535    4.3537    0.0000 C   0  0
   -8.7212    3.5504    0.0000 C   0  0
  -10.0513    4.2457    0.0000 C   0  0
  -11.3190    3.4424    0.0000 N   0  0
  -12.6490    4.1377    0.0000 C   0  0
  -12.6989    5.3367    0.0000 N   0  0
  -13.6626    3.4954    0.0000 N   0  0
   -8.1371    0.8793    0.0000 O   0  0
   -8.2511   -1.4065    0.0000 C   0  0
   -9.1600   -0.2122    0.0000 C   0  0
  -10.6488   -0.4012    0.0000 C   0  0
  -11.2304   -1.7848    0.0000 N   0  0
  -12.7193   -1.9738    0.0000 C   0  0
  -13.1843   -3.0800    0.0000 N   0  0
  -13.4451   -1.0182    0.0000 N   0  0
   -3.1643   -7.6130    0.0000 O   0  0
    1.9500   -8.2763    0.0000 O   0  0
    3.2303   -8.1972    0.0000 C   0  0
    4.5520   -8.9083    0.0000 C   0  0
    4.6073  -10.4189    0.0000 C   0  0
    5.9264  -11.1269    0.0000 C   0  0
    5.9726  -12.6232    0.0000 C   0  0
    7.2916  -13.3312    0.0000 C   0  0
    8.5645  -12.5428    0.0000 C   0  0
    8.5184  -11.0465    0.0000 C   0  0
    7.1993  -10.3385    0.0000 C   0  0
    7.1532   -8.8422    0.0000 C   0  0
    5.8245   -8.1186    0.0000 C   0  0
    7.5321   -5.1027    0.0000 C   0  0
    9.0231   -4.9314    0.0000 C   0  0
    9.9191   -6.1344    0.0000 C   0  0
   11.4089   -5.9601    0.0000 C   0  0
   12.0029   -4.5828    0.0000 C   0  0
   11.1071   -3.3797    0.0000 C   0  0
    9.6172   -3.5540    0.0000 C   0  0
    8.9232   -1.3414    0.0000 O   0  0
    7.6677    1.8602    0.0000 C   0  0
    7.1771    3.2777    0.0000 N   0  0
    6.4271    4.5767    0.0000 C   0  0
    5.4448    5.7103    0.0000 C   0  0
    4.2657    6.6376    0.0000 C   0  0
    4.2254    6.5854    0.0000 C   0  0
    7.4046    5.2728    0.0000 O   0  0
    7.6991   -4.4450    0.0000 C   0  0
    5.6191   -7.1453    0.0000 O   0  0
    4.0737   -7.9018    0.0000 C   0  0
    0.8641   -9.0489    0.0000 O   0  0
   -0.8967   -9.3600    0.0000 C   0  0
    0.3236  -10.2336    0.0000 C   0  0
    0.1781  -11.7274    0.0000 C   0  0
    1.3984  -12.6011    0.0000 N   0  0
    1.2529  -14.0948    0.0000 C   0  0
    0.1603  -14.5909    0.0000 N   0  0
    2.2286  -14.7934    0.0000 N   0  0
   -4.1653   -8.0796    0.0000 O   0  0
   -9.1383    2.2147    0.0000 C   0  0  2  0  0  0
   -9.4776    3.3657    0.0000 C   0  0
  -10.1732    1.1277    0.0000 C   0  0
  -11.3397    1.4090    0.0000 C   0  0
   -1.7767    9.2335    0.0000 C   0  0
   -0.6411   10.2148    0.0000 C   0  0
   -0.9200   11.6887    0.0000 C   0  0
    0.2169   12.6672    0.0000 C   0  0
    1.6327   12.1719    0.0000 C   0  0
    1.9117   10.6980    0.0000 C   0  0
    0.7748    9.7195    0.0000 C   0  0
    7.8117   -0.6221    0.0000 H   0  0
   -7.6470   -3.5622    0.0000 H   0  0
   -8.1476    2.7375    0.0000 H   0  0
  2  1  1  0
  3  2  1  0
  3  4  2  0
  5  3  1  0
  6  5  1  0
  7  6  2  0
  8  7  1  0
  8  9  2  0
 10  8  1  0
 10 11  1  0
 11 12  1  0
 12 13  2  0
 14 12  1  0
 15 14  1  0
 15 16  1  6
 16 17  1  0
 18 17  1  0
 19 18  2  0
 20 19  1  0
 21 20  2  0
 22 21  1  0
 17 22  2  0
 20 23  1  0
 24 15  1  0
 24 25  2  0
 26 24  1  0
 27 26  1  0
 28 27  1  0
 28 29  2  0
 30 28  1  0
 31 30  1  0
 31 32  1  0
 32 33  1  0
 33 34  1  0
 34 35  1  0
 35 30  1  0
 31 36  1  0
 36 37  2  0
 38 36  1  0
 39 38  1  0
 39 40  1  6
 40 41  1  0
 41 42  2  0
 42 43  1  0
 43 44  2  0
 44 45  1  0
 45 46  2  0
 46 47  1  0
 47 48  2  0
 48 43  1  0
 48 49  1  0
 49 50  2  0
 50 41  1  0
 39 51  1  0
 51 52  1  0
 52 53  1  0
 53 54  1  0
 54 55  1  0
 55 56  1  0
 56 57  1  0
 57 58  1  0
 58 59  1  0
 59 60  1  0
 60 61  2  0
 60 62  1  0
 62 63  1  0
 63 64  1  0
 64 65  1  0
 65 66  1  0
 66 67  1  0
 67 68  2  0
 67 69  1  0
 69 70  1  0
 70 71  1  0
 71 72  1  0
 72 73  1  0
 73 74  1  1
 74 75  1  0
 75 76  1  0
 76 77  1  0
 77 78  1  0
 78 79  2  0
 78 80  1  0
 73 81  1  0
 81 82  1  0
 82 83  1  0
 83 84  1  1
 84 85  1  0
 85 86  1  0
 86 87  1  0
 87 88  1  0
 88 89  2  0
 88 90  1  0
 83 91  1  0
 91 92  2  0
 91 93  1  0
 94 93  1  0
 95 94  1  0
 96 95  1  0
 97 96  1  0
 98 97  1  0
 99 98  1  0
100 99  1  0
100101  1  6
101102  2  0
101103  1  0
104103  1  6
104105  1  0
105106  1  0
106107  1  0
107108  1  0
108109  1  0
104110  1  0
110111  1  0
110112  2  0
100  1  1  0
 98113  2  0
 97114  1  1
114115  1  0
115116  1  0
116117  1  0
117118  1  0
118119  1  0
118120  2  0
 95121  2  0
 94122  1  1
122123  1  0
123124  1  0
124125  1  0
125126  1  0
126127  2  0
126128  1  0
 81129  2  0
 71130  2  0
 70131  1  1
131132  1  0
132133  2  0
133134  1  0
134135  2  0
135136  1  0
136137  2  0
137138  1  0
138139  2  0
139134  1  0
139140  1  0
140141  2  0
141132  1  0
 66142  1  1
142143  1  0
144143  1  0
145144  2  0
146145  1  0
147146  2  0
148147  1  0
143148  2  0
 64149  2  0
 63150  1  0
150151  1  0
152151  1  0
153152  1  0
153154  2  0
154  7  1  0
155153  1  0
  5155  2  0
152156  2  0
 59157  1  1
 57158  2  0
 56159  1  6
 54160  2  0
 53161  1  6
161162  1  0
162163  1  0
163164  1  0
164165  1  0
165166  1  0
165167  2  0
 51168  2  0
 27169  1  0
169170  1  1
169171  1  0
171172  1  0
 11173  1  1
173174  1  0
175174  1  0
176175  2  0
177176  1  0
178177  2  0
179178  1  0
174179  2  0
 63180  1  1
 31181  1  6
 27182  1  6
M  END