
  SciTegic12231509382D

  9  9  0  0  0  0            999 V2000
   -1.6328   -1.8357    0.0000 C   0  0
   -1.0795   -2.4477    0.0000 N   0  0
   -0.3265   -2.1107    0.0000 C   0  0
   -0.4143   -1.2903    0.0000 C   0  0
   -1.2216   -1.1205    0.0000 N   0  0
    0.3888   -2.5218    0.0000 C   0  0
    1.1025   -2.1080    0.0000 C   0  0  2  0  0  0
    1.8177   -2.5191    0.0000 N   0  0
    1.1009   -1.2830    0.0000 C   0  0
  4  5  1  0
  5  1  1  0
  1  2  2  0
  3  6  1  0
  6  7  1  0
  2  3  1  0
  7  8  1  0
  3  4  2  0
  7  9  1  1
M  END