
  SciTegic09081514162D

 27 29  0  0  0  0            999 V2000
    1.2990   -0.7500    0.0000 N   0  0
    1.2990    0.7500    0.0000 C   0  0
    0.0000    1.5000    0.0000 C   0  0
   -1.2990    0.7500    0.0000 C   0  0
   -1.2990   -0.7500    0.0000 C   0  0
    0.0000   -1.5000    0.0000 C   0  0
   -2.5972   -1.5031    0.0000 C   0  0
   -2.5951   -3.0039    0.0000 N   0  0
   -3.6375   -0.9049    0.0000 O   0  0
   -3.8933   -3.7570    0.0000 C   0  0
   -3.8934   -5.2570    0.0000 C   0  0
   -5.1924   -6.0071    0.0000 C   0  0
   -6.4914   -5.2571    0.0000 N   0  0
   -6.4915   -3.7571    0.0000 C   0  0
   -5.1925   -3.0071    0.0000 C   0  0
   -7.7927   -6.0049    0.0000 C   0  0
   -9.0914   -5.2527    0.0000 C   0  0
  -10.1319   -5.8505    0.0000 F   0  0
   -9.0894   -4.0527    0.0000 F   0  0
  -10.1295   -4.6507    0.0000 F   0  0
    2.5987    1.5004    0.0000 N   0  0
    3.8991    0.7525    0.0000 C   0  0
    5.1969    1.5046    0.0000 C   0  0
    5.1945    3.0046    0.0000 N   0  0
    3.8943    3.7525    0.0000 C   0  0
    2.5964    3.0004    0.0000 C   0  0
    3.8924    4.9525    0.0000 O   0  0
  1  2  2  0
  2  3  1  0
  3  4  2  0
  4  5  1  0
  5  6  2  0
  6  1  1  0
  5  7  1  0
  7  8  1  0
  7  9  2  0
  8 10  1  0
 10 11  1  0
 10 15  1  0
 11 12  1  0
 12 13  1  0
 13 14  1  0
 14 15  1  0
 13 16  1  0
 16 17  1  0
 17 18  1  0
 17 19  1  0
 17 20  1  0
  2 21  1  0
 21 22  1  0
 21 26  1  0
 22 23  1  0
 23 24  1  0
 24 25  1  0
 25 26  1  0
 25 27  2  0
M  END