
  SciTegic09081514182D

 29 30  0  0  0  0            999 V2000
    1.2990   -0.7500    0.0000 N   0  0
    1.2990    0.7500    0.0000 C   0  0
    0.0000    1.5000    0.0000 N   0  0
   -1.2990    0.7500    0.0000 C   0  0
   -1.2990   -0.7500    0.0000 C   0  0
    0.0000   -1.5000    0.0000 C   0  0
   -2.5988   -1.5004    0.0000 C   0  0
   -3.6380   -2.1004    0.0000 N   0  0
   -2.5987    1.5004    0.0000 C   0  0
   -2.6012    3.0004    0.0000 C   0  0
   -3.9015    3.7484    0.0000 C   0  0
   -5.1993    2.9963    0.0000 C   0  0
   -5.1969    1.4963    0.0000 C   0  0
   -3.8967    0.7484    0.0000 C   0  0
    0.0031   -3.0008    0.0000 N   0  0
    1.3039   -3.7494    0.0000 N   0  0
    1.3070   -5.2502    0.0000 C   0  0
    0.2688   -5.8520    0.0000 N   0  0
    2.3471   -5.8487    0.0000 S   0  0
    2.5972    1.5031    0.0000 S   0  0
    2.5951    3.0039    0.0000 C   0  0
    3.8933    3.7570    0.0000 C   0  0
    4.9313    4.3592    0.0000 C   0  0
   -6.4939    0.7411    0.0000 O   0  0
   -6.4903   -0.4589    0.0000 C   0  0
   -6.5018    3.7420    0.0000 O   0  0
   -7.5392    3.1388    0.0000 C   0  0
   -3.9008    5.2492    0.0000 O   0  0
   -2.8616    5.8494    0.0000 C   0  0
  1  2  2  0
  2  3  1  0
  3  4  2  0
  4  5  1  0
  5  6  2  0
  6  1  1  0
  5  7  1  0
  7  8  3  0
  9 10  2  0
 10 11  1  0
 11 12  2  0
 12 13  1  0
 13 14  2  0
 14  9  1  0
  4  9  1  0
  6 15  1  0
 15 16  1  0
 16 17  1  0
 17 18  1  0
 17 19  2  0
  2 20  1  0
 20 21  1  0
 21 22  1  0
 22 23  3  0
 13 24  1  0
 24 25  1  0
 12 26  1  0
 26 27  1  0
 11 28  1  0
 28 29  1  0
M  END