
  CDK    9/16/09,10:0

 25 27  0  0  0  0  0  0  0  0999 V2000
    2.8944  -28.0332    0.0000 N   0  0  0  0  0  0  0  0  0  0  0  0
    3.3105  -27.3234    0.0000 C   0  0  0  0  0  0  0  0  0  0  0  0
    2.9024  -26.6106    0.0000 C   0  0  0  0  0  0  0  0  0  0  0  0
    2.0771  -26.6053    0.0000 C   0  0  0  0  0  0  0  0  0  0  0  0
    1.6615  -27.3191    0.0000 C   0  0  0  0  0  0  0  0  0  0  0  0
    2.0712  -28.0381    0.0000 C   0  0  0  0  0  0  0  0  0  0  0  0
   -3.3197  -25.6195    0.0000 C   0  0  0  0  0  0  0  0  0  0  0  0
   -3.3211  -26.4471    0.0000 C   0  0  0  0  0  0  0  0  0  0  0  0
   -2.6081  -26.8600    0.0000 C   0  0  0  0  0  0  0  0  0  0  0  0
   -1.8888  -26.4465    0.0000 C   0  0  0  0  0  0  0  0  0  0  0  0
   -1.8919  -25.6155    0.0000 C   0  0  0  0  0  0  0  0  0  0  0  0
   -2.6101  -25.2068    0.0000 C   0  0  0  0  0  0  0  0  0  0  0  0
   -1.1796  -25.1995    0.0000 C   0  0  0  0  0  0  0  0  0  0  0  0
   -0.4631  -25.6085    0.0000 C   0  0  0  0  0  0  0  0  0  0  0  0
   -0.3701  -26.4282    0.0000 C   0  0  0  0  0  0  0  0  0  0  0  0
    0.4377  -26.5958    0.0000 N   0  0  0  0  0  0  0  0  0  0  0  0
    0.8462  -25.8796    0.0000 C   0  0  0  0  0  0  0  0  0  0  0  0
    0.2915  -25.2690    0.0000 N   0  0  0  0  0  0  0  0  0  0  0  0
   -4.0360  -26.8585    0.0000 Cl  0  0  0  0  0  0  0  0  0  0  0  0
    0.4594  -24.4613    0.0000 C   0  0  0  0  0  0  0  0  0  0  0  0
    1.6711  -25.8872    0.0000 S   0  0  0  0  0  0  0  0  0  0  0  0
    3.3067  -28.7477    0.0000 C   0  0  0  0  0  0  0  0  0  0  0  0
    2.8940  -29.4620    0.0000 C   0  0  0  0  0  0  0  0  0  0  0  0
    4.1316  -28.7480    0.0000 C   0  0  0  0  0  0  0  0  0  0  0  0
   -1.1836  -24.3745    0.0000 O   0  0  0  0  0  0  0  0  0  0  0  0
  5  6  1  0  0  0  0 
 11 13  1  0  0  0  0 
  1  2  1  0  0  0  0 
 13 14  1  0  0  0  0 
 14 15  2  0  0  0  0 
  7  8  2  0  0  0  0 
  1  6  1  0  0  0  0 
  8  9  1  0  0  0  0 
 15 16  1  0  0  0  0 
 16 17  2  0  0  0  0 
 17 18  1  0  0  0  0 
 18 14  1  0  0  0  0 
  2  3  1  0  0  0  0 
  8 19  1  0  0  0  0 
  9 10  2  0  0  0  0 
 18 20  1  0  0  0  0 
  3  4  1  0  0  0  0 
 17 21  1  0  0  0  0 
 21  4  1  0  0  0  0 
 10 11  1  0  0  0  0 
  1 22  1  0  0  0  0 
  4  5  1  0  0  0  0 
 22 23  1  0  0  0  0 
 11 12  2  0  0  0  0 
 22 24  1  0  0  0  0 
 12  7  1  0  0  0  0 
 13 25  2  0  0  0  0 
M  END