
          11280714512D 1   1.00000     0.00000     0

 39 43  0     0  0            999 V2000
    0.2292   -1.7792    0.0000 C   0  0  0  0  0  0           0  0  0
    0.8917   -1.3042    0.0000 N   0  0  0  0  0  0           0  0  0
   -0.0375   -1.1042    0.0000 C   0  0  3  0  0  0           0  0  0
    1.5625   -1.7792    0.0000 C   0  0  0  0  0  0           0  0  0
    0.1125   -0.4167    0.0000 C   0  0  3  0  0  0           0  0  0
   -1.3458   -1.1917    0.0000 C   0  0  3  0  0  0           0  0  0
   -1.0083   -1.9792    0.0000 O   0  0  0  0  0  0           0  0  0
    0.4792   -2.5667    0.0000 O   0  0  0  0  0  0           0  0  0
   -0.6708   -0.6417    0.0000 C   0  0  3  0  0  0           0  0  0
    1.3042   -2.5667    0.0000 C   0  0  0  0  0  0           0  0  0
    0.5917   -0.8917    0.0000 C   0  0  0  0  0  0           0  0  0
    2.2292   -1.5042    0.0000 C   0  0  0  0  0  0           0  0  0
    1.0625   -0.4167    0.0000 C   0  0  0  0  0  0           0  0  0
   -1.2708    1.0583    0.0000 C   0  0  0  0  0  0           0  0  0
   -1.6208   -0.6542    0.0000 C   0  0  0  0  0  0           0  0  0
   -1.1458   -0.1667    0.0000 C   0  0  0  0  0  0           0  0  0
    0.6292    0.2833    0.0000 C   0  0  0  0  0  0           0  0  0
    2.3167   -0.7542    0.0000 O   0  0  0  0  0  0           0  0  0
   -2.0708    0.8458    0.0000 O   0  0  0  0  0  0           0  0  0
    2.8792   -1.9167    0.0000 N   0  0  0  0  0  0           0  0  0
    0.0417    0.8708    0.0000 C   0  0  0  0  0  0           0  0  0
   -0.6750    0.4625    0.0000 C   0  0  0  0  0  0           0  0  0
    7.8875   -0.7042    0.0000 C   0  0  0  0  0  0           0  0  0
    8.6000   -0.2917    0.0000 S   0  0  0  0  0  0           0  0  0
   -1.0500    1.8583    0.0000 O   0  0  0  0  0  0           0  0  0
    6.4667   -1.5417    0.0000 C   0  0  0  0  0  0           0  0  0
    7.1667   -0.3000    0.0000 C   0  0  0  0  0  0           0  0  0
    7.8917   -1.5292    0.0000 C   0  0  0  0  0  0           0  0  0
    6.4542   -0.7167    0.0000 C   0  0  0  0  0  0           0  0  0
    7.1792   -1.9500    0.0000 C   0  0  0  0  0  0           0  0  0
    1.8917   -0.3917    0.0000 C   0  0  0  0  0  0           0  0  0
    1.0292    1.0208    0.0000 C   0  0  0  0  0  0           0  0  0
    3.6167   -1.5500    0.0000 C   0  0  0  0  0  0           0  0  0
    8.5917    0.5333    0.0000 C   0  0  0  0  0  0           0  0  0
    5.7542   -1.9542    0.0000 C   0  0  0  0  0  0           0  0  0
    4.3292   -1.9625    0.0000 C   0  0  0  0  0  0           0  0  0
    5.0417   -1.5417    0.0000 C   0  0  0  0  0  0           0  0  0
    2.2875    0.3333    0.0000 C   0  0  0  0  0  0           0  0  0
    1.8542    1.0333    0.0000 C   0  0  0  0  0  0           0  0  0
  2  1  2  0     0  0
  3  1  1  0     0  0
  4  2  1  0     0  0
  5  3  1  0     0  0
  6  3  1  0     0  0
  7  6  1  0     0  0
  8  1  1  0     0  0
  9  5  1  0     0  0
 10  8  1  0     0  0
 11  5  1  0     0  0
 12  4  1  0     0  0
 13 11  1  0     0  0
 14 22  1  0     0  0
 15  6  1  0     0  0
 16 15  1  0     0  0
 17 13  2  0     0  0
 18 12  2  0     0  0
 19 14  2  0     0  0
 20 12  1  0     0  0
 21 17  1  0     0  0
 22 21  1  0     0  0
 23 28  2  0     0  0
 24 23  1  0     0  0
 25 14  1  0     0  0
 26 35  1  0     0  0
 27 29  2  0     0  0
 28 30  1  0     0  0
 29 26  1  0     0  0
 30 26  2  0     0  0
 31 13  1  0     0  0
 32 17  1  0     0  0
 33 20  1  0     0  0
 34 24  1  0     0  0
 35 37  1  0     0  0
 36 33  1  0     0  0
 37 36  1  0     0  0
 38 31  2  0     0  0
 39 38  1  0     0  0
 10  4  2  0     0  0
  9  7  1  0     0  0
  9 16  1  0     0  0
 39 32  2  0     0  0
 23 27  1  0     0  0
M  END