
  SciTegic12231509382D

 31 34  0  0  1  0            999 V2000
    4.0917   -4.2042    0.0000 N   0  0
    4.3875   -3.5792    0.0000 C   0  0
    4.0792   -2.9917    0.0000 C   0  0  1  0  0  0
    3.3625   -2.7792    0.0000 N   0  0
    0.9667   -4.2917    0.0000 C   0  0
    2.8042   -3.9375    0.0000 C   0  0
    0.3417   -3.9292    0.0000 N   0  0
    4.7042   -2.6292    0.0000 C   0  0
    2.8042   -3.2250    0.0000 C   0  0
    1.5667   -3.9542    0.0000 C   0  0
    3.3917   -4.3542    0.0000 C   0  0
    2.1667   -4.3167    0.0000 C   0  0
    4.7042   -1.9292    0.0000 C   0  0
    5.1375   -3.5792    0.0000 O   0  0
    0.9667   -4.9917    0.0000 O   0  0
   -0.2500   -4.2917    0.0000 C   0  0
    0.3417   -3.2250    0.0000 C   0  0
   -2.7083   -2.1542    0.0000 N   0  0
    1.5667   -3.2167    0.0000 C   0  0
    2.1667   -2.8625    0.0000 C   0  0
   -0.8958   -3.2250    0.0000 C   0  0
    4.1042   -1.5917    0.0000 O   0  0
   -0.8958   -3.9625    0.0000 C   0  0
   -0.2500   -2.8625    0.0000 C   0  0
   -1.4958   -2.8667    0.0000 C   0  0
    4.5167   -4.7500    0.0000 C   0  0
    5.3125   -1.6042    0.0000 O   0  0
   -2.7083   -2.8625    0.0000 C   0  0
   -2.1000   -1.7917    0.0000 C   0  0
   -2.1000   -3.2042    0.0000 C   0  0
   -1.4958   -2.1292    0.0000 C   0  0
  2  1  1  0
  3  2  1  0
  4  3  1  0
  5 10  1  0
  6 11  1  0
  7  5  1  0
  3  8  1  1
  9  6  2  0
 10 12  2  0
 11  1  1  0
 12  6  1  0
 13  8  1  0
 14  2  2  0
 15  5  2  0
 16  7  1  0
 17  7  1  0
 18 28  1  0
 19 10  1  0
 20  9  1  0
 21 24  1  0
 22 13  2  0
 23 16  1  0
 24 17  1  0
 25 21  1  0
 26  1  1  0
 27 13  1  0
 28 30  1  0
 29 31  1  0
 30 25  1  0
 31 25  1  0
  9  4  1  0
 20 19  2  0
 23 21  1  0
 29 18  1  0
M  END