
  SciTegic09171211542D

111103  0  0  0  0            999 V2000
    1.4500    0.0583    0.0000 O   0  0
    1.0416   -0.6583    0.0000 S   0  0
    1.8665   -0.6536    0.0000 O   0  0
    9.6564   -3.8658    0.0000 O   0  0
    8.9509   -4.2943    0.0000 S   0  0
    9.6746   -4.6910    0.0000 O   0  0
    7.7338   -4.2811    0.0000 S   0  0
    6.1998   -4.5024    0.0000 O   0  0
    6.7775   -3.9094    0.0000 S   0  0
    5.9751   -3.7056    0.0000 O   0  0
    3.8391   -4.1290    0.0000 O   0  0
    4.6426   -4.3324    0.0000 S   0  0
    4.4170   -3.5348    0.0000 O   0  0
    0.9891   -4.1554    0.0000 O   0  0
    1.7926   -4.3588    0.0000 S   0  0
    1.5670   -3.5613    0.0000 O   0  0
   -0.2443   -2.1506    0.0000 O   0  0
    0.3529   -2.7283    0.0000 S   0  0
    0.5546   -1.9223    0.0000 O   0  0
    2.3397    0.5968    0.0000 O   0  0
    3.1647    0.6063    0.0000 S   0  0
    2.7439    1.3160    0.0000 O   0  0
    4.1749    0.4980    0.0000 O   0  0
    4.6034   -0.2116    0.0000 S   0  0
    5.0038    0.5143    0.0000 O   0  0
   10.0430   -1.2966    0.0000 O   0  0
    9.6229   -0.5909    0.0000 S   0  0
    9.2218   -1.3076    0.0000 O   0  0
    1.0555   -1.4873    0.0000 O   0  0
    1.7752   -1.8906    0.0000 C   0  0  1  0  0  0
    1.7834   -2.7142    0.0000 C   0  0  1  0  0  0
    2.4990   -3.1174    0.0000 C   0  0  2  0  0  0
    3.2106   -2.6992    0.0000 C   0  0  2  0  0  0
    3.2019   -1.8733    0.0000 O   0  0
    2.4817   -1.4656    0.0000 C   0  0  2  0  0  0
    2.4707   -0.6407    0.0000 C   0  0
    1.0731   -3.1340    0.0000 O   0  0
    2.5065   -3.9424    0.0000 O   0  0
    3.9288   -3.1052    0.0000 O   0  0
    4.6394   -2.6862    0.0000 C   0  0  1  0  0  0
    5.3520   -3.0950    0.0000 C   0  0  1  0  0  0
    6.0606   -2.6796    0.0000 C   0  0  2  0  0  0
    6.0573   -1.8542    0.0000 C   0  0  2  0  0  0
    5.3392   -1.4460    0.0000 O   0  0
    4.6244   -1.8632    0.0000 C   0  0  2  0  0  0
    3.9053   -1.4590    0.0000 C   0  0
    3.1797   -0.2187    0.0000 O   0  0
    3.8958   -0.6340    0.0000 O   0  0
    5.3559   -3.9200    0.0000 O   0  0
    6.7772   -3.0882    0.0000 O   0  0
    6.7696   -1.4379    0.0000 O   0  0
    7.4862   -1.8466    0.0000 C   0  0  1  0  0  0
    7.4912   -2.6683    0.0000 C   0  0  1  0  0  0
    8.2037   -3.0769    0.0000 C   0  0  1  0  0  0
    8.9160   -1.8381    0.0000 O   0  0
    8.1989   -1.4250    0.0000 C   0  0  2  0  0  0
    7.5092   -3.4928    0.0000 O   0  0
    8.9314   -3.4735    0.0000 O   0  0
    8.1941   -0.6000    0.0000 C   0  0
    8.9062   -0.1834    0.0000 O   0  0
    3.2291   -3.5239    0.0000 H   0  0
    6.7844   -2.2503    0.0000 H   0  0
    3.9256   -2.2807    0.0000 H   0  0
    7.4822   -1.0221    0.0000 H   0  0
   10.3351   -0.1751    0.0000 O   0  5
    8.5340   -4.4821    0.0000 O   0  5
    5.3247   -0.6176    0.0000 O   0  5
    3.8777    1.0281    0.0000 O   0  5
   -0.3557   -3.1485    0.0000 O   0  5
    1.8034   -5.1863    0.0000 O   0  5
    4.6472   -5.1609    0.0000 O   0  5
    7.0032   -4.7016    0.0000 O   0  5
    7.0104   -3.8805    0.0000 O   0  0
    7.5304   -5.0804    0.0000 O   0  0
    8.7474   -5.0936    0.0000 O   0  5
    0.3251   -0.2592    0.0000 O   0  5
    8.9168   -2.6631    0.0000 C   0  0  1  0  0  0
   11.7749   -2.6202    0.0000 C   0  0
   12.4830   -3.0435    0.0000 N   0  0
   13.2037   -2.6419    0.0000 C   0  0
   13.9118   -3.0651    0.0000 C   0  0
   13.2161   -1.8169    0.0000 O   0  0
   14.6324   -2.6635    0.0000 C   0  0
   15.3406   -3.0867    0.0000 C   0  0
   16.0612   -2.6851    0.0000 C   0  0
   16.7694   -3.1083    0.0000 C   0  0
   17.4900   -2.7067    0.0000 C   0  0
   18.1981   -3.1299    0.0000 C   0  0
   18.9188   -2.7283    0.0000 C   0  0
   19.6269   -3.1515    0.0000 C   0  0
   20.3475   -2.7499    0.0000 C   0  0
   21.0557   -3.1732    0.0000 C   0  0
   21.7763   -2.7715    0.0000 C   0  0
   21.7888   -1.9466    0.0000 C   0  0
   21.0806   -1.5233    0.0000 C   0  0
   20.3600   -1.9250    0.0000 C   0  0
   19.6519   -1.5017    0.0000 C   0  0
   18.9312   -1.9034    0.0000 C   0  0
   10.3461   -2.6419    0.0000 C   0  0
   11.0667   -3.0435    0.0000 C   0  0
    9.6379   -3.0651    0.0000 O   0  0
    9.7833    1.9125    0.0000 Na  0  3
   11.0021    1.8187    0.0000 Na  0  3
   12.2208    1.9438    0.0000 Na  0  3
   13.0333    1.9438    0.0000 Na  0  3
   10.4395    1.0375    0.0000 Na  0  3
   11.6895    1.1000    0.0000 Na  0  3
   12.9395    1.1313    0.0000 Na  0  3
   11.3770    0.3500    0.0000 Na  0  3
   12.5958    0.3500    0.0000 Na  0  3
   12.3458   -0.3063    0.0000 Na  0  3
 41 49  1  1
 18 17  2  0
 42 50  1  6
 19 18  2  0
 43 51  1  0
 52 51  1  0
 53 52  1  0
 21 20  2  0
 22 21  2  0
 52 56  1  0
 54 53  1  0
 56 55  1  0
 53 57  1  1
 54 58  1  6
 24 23  2  0
 56 59  1  1
 25 24  2  0
 59 60  1  0
 33 61  1  1
  2  1  2  0
 43 62  1  1
  3  2  2  0
 40 63  1  1
 27 26  2  0
 28 27  2  0
 52 64  1  1
 60 27  1  0
 27 65  1  0
 50  9  1  0
 57  7  1  0
  7 66  1  0
 48 24  1  0
 24 67  1  0
 47 21  1  0
  5  4  2  0
 21 68  1  0
 37 18  1  0
  6  5  2  0
 18 69  1  0
 38 15  1  0
 30 29  1  6
 15 70  1  0
 49 12  1  0
 30 31  1  0
 12 71  1  0
  9 72  1  0
  7 73  2  0
  7 74  2  0
 58  5  1  0
  5 75  1  0
 29  2  1  0
  9  8  2  0
  2 76  1  0
 55 77  1  0
 77 54  1  0
 30 35  1  0
 31 32  1  0
 32 33  1  0
 33 34  1  0
 34 35  1  0
 10  9  2  0
 35 36  1  1
 31 37  1  1
 32 38  1  6
 33 39  1  0
 12 11  2  0
 39 40  1  0
 40 41  1  0
 13 12  2  0
 92 93  1  0
 93 94  1  0
 85 86  1  0
 94 95  1  0
 80 82  2  0
 95 96  1  0
 86 87  1  0
 96 97  1  0
 79 80  1  0
 97 98  1  0
 87 88  1  0
 81 83  1  0
 99100  1  0
100 78  1  0
 88 89  1  0
 78 79  1  0
 89 90  1  0
 83 84  1  0
 90 91  1  0
 80 81  1  0
 91 92  1  0
 84 85  1  0
101 99  1  0
 77101  1  1
 15 14  2  0
 40 45  1  0
 41 42  1  0
 42 43  1  0
 43 44  1  0
 44 45  1  0
 16 15  2  0
 45 46  1  1
 36 47  1  0
 46 48  1  0
M  CHG  8  65  -1  66  -1  67  -1  68  -1  69  -1  70  -1  71  -1  72  -1
M  CHG  8  75  -1  76  -1 102   1 103   1 104   1 105   1 106   1 107   1
M  CHG  4 108   1 109   1 110   1 111   1
M  END