
          11280714492D 1   1.00000     0.00000     0

 38 40  0     0  0            999 V2000
    4.5917   -0.7792    0.0000 C   0  0  0  0  0  0           0  0  0
    4.8500   -1.5625    0.0000 C   0  0  0  0  0  0           0  0  0
    4.3542   -2.2292    0.0000 C   0  0  0  0  0  0           0  0  0
    5.2625   -0.2917    0.0000 C   0  0  0  0  0  0           0  0  0
    1.3125   -0.5000    0.0000 C   0  0  0  0  0  0           0  0  0
    5.6542   -1.6875    0.0000 C   0  0  0  0  0  0           0  0  0
    1.7250   -1.2292    0.0000 C   0  0  0  0  0  0           0  0  0
    1.7292    0.2125    0.0000 C   0  0  0  0  0  0           0  0  0
    4.6792   -2.9875    0.0000 C   0  0  0  0  0  0           0  0  0
    4.1917   -3.6542    0.0000 C   0  0  0  0  0  0           0  0  0
    3.8042   -0.5250    0.0000 C   0  0  0  0  0  0           0  0  0
    2.9750   -0.5167    0.0000 C   0  0  0  0  0  0           0  0  0
    6.0042    0.0250    0.0000 C   0  0  0  0  0  0           0  0  0
    3.3667   -3.5542    0.0000 C   0  0  0  0  0  0           0  0  0
    4.3542   -4.4792    0.0000 O   0  0  0  0  0  0           0  0  0
    2.5625    0.2083    0.0000 C   0  0  0  0  0  0           0  0  0
    2.5542   -1.2292    0.0000 C   0  0  0  0  0  0           0  0  0
    3.0167   -4.3125    0.0000 O   0  0  0  0  0  0           0  0  0
    3.6292   -4.8792    0.0000 C   0  0  0  0  0  0           0  0  0
    3.5292   -2.1417    0.0000 C   0  0  0  0  0  0           0  0  0
    5.9500   -2.4542    0.0000 O   0  5  0  0  0  0           0  0  0
    5.9167   -0.7792    0.0000 O   0  0  0  0  0  0           0  0  0
    6.4417   -1.4667    0.0000 O   0  0  0  0  0  0           0  0  0
    3.0417   -2.8000    0.0000 C   0  0  0  0  0  0           0  0  0
    6.1042    0.8333    0.0000 C   0  0  0  0  0  0           0  0  0
    6.6542   -0.4625    0.0000 C   0  0  0  0  0  0           0  0  0
    0.4792   -0.5000    0.0000 O   0  0  0  0  0  0           0  0  0
    1.3042   -1.9417    0.0000 O   0  0  0  0  0  0           0  0  0
    1.3250    0.9375    0.0000 O   0  0  0  0  0  0           0  0  0
    7.5125    0.6708    0.0000 C   0  0  0  0  0  0           0  0  0
    6.8500    1.1583    0.0000 C   0  0  0  0  0  0           0  0  0
    7.4167   -0.1417    0.0000 C   0  0  0  0  0  0           0  0  0
    6.7292   -2.9625    0.0000 Na  0  3  0  0  0  0           0  0  0
    8.2542    1.0000    0.0000 O   0  0  0  0  0  0           0  0  0
    0.0625   -1.2167    0.0000 C   0  0  0  0  0  0           0  0  0
    1.7167   -2.6750    0.0000 C   0  0  0  0  0  0           0  0  0
    0.4917    0.9458    0.0000 C   0  0  0  0  0  0           0  0  0
    8.3625    1.8125    0.0000 C   0  0  0  0  0  0           0  0  0
  2  1  2  0     0  0
  3  2  1  0     0  0
  4  1  1  0     0  0
  5  7  1  0     0  0
  6  2  1  0     0  0
  7 17  2  0     0  0
  8 16  1  0     0  0
  9  3  1  0     0  0
 10  9  2  0     0  0
 11  1  1  0     0  0
 12 11  1  0     0  0
 13  4  1  0     0  0
 14 24  2  0     0  0
 15 10  1  0     0  0
 16 12  2  0     0  0
 17 12  1  0     0  0
 18 14  1  0     0  0
 19 15  1  0     0  0
 20  3  2  0     0  0
 21  6  1  0     0  0
 22  4  2  0     0  0
 23  6  2  0     0  0
 24 20  1  0     0  0
 25 13  1  0     0  0
 26 13  2  0     0  0
 27  5  1  0     0  0
 28  7  1  0     0  0
 29  8  1  0     0  0
 30 32  2  0     0  0
 31 25  2  0     0  0
 32 26  1  0     0  0
 34 30  1  0     0  0
 35 27  1  0     0  0
 36 28  1  0     0  0
 37 29  1  0     0  0
 38 34  1  0     0  0
  5  8  2  0     0  0
 31 30  1  0     0  0
 14 10  1  0     0  0
 19 18  1  0     0  0
M  CHG  2  21  -1  33   1
M  END