
  SciTegic12011114592D

 30 33  0  0  0  0            999 V2000
    5.7759  -16.4946    0.0000 N   0  0
    6.4918  -16.0845    0.0000 C   0  0
    6.4947  -15.2578    0.0000 N   0  0
    5.7757  -14.8430    0.0000 C   0  0
    5.7752  -14.0172    0.0000 N   0  0
    6.4905  -13.6038    0.0000 C   0  0
    7.2056  -16.4998    0.0000 S   0  0
    7.9221  -16.0894    0.0000 C   0  0
    8.6317  -16.5078    0.0000 C   0  0
    9.3477  -16.0981    0.0000 C   0  0
    9.3509  -15.2714    0.0000 C   0  0
    8.6323  -14.8562    0.0000 C   0  0
    7.9191  -15.2684    0.0000 C   0  0
   10.0670  -14.8600    0.0000 N   0  0
    7.2770  -13.8521    0.0000 C   0  0
    7.7565  -13.1798    0.0000 C   0  0
    7.2653  -12.5161    0.0000 N   0  0
    6.4822  -12.7780    0.0000 N   0  0
    8.5823  -13.1726    0.0000 C   0  0
    4.2877  -15.0041    0.0000 C   0  0
    3.8062  -15.6658    0.0000 C   0  0
    4.2869  -16.3282    0.0000 C   0  0
    5.0653  -16.0758    0.0000 N   0  0
    5.0659  -15.2574    0.0000 C   0  0
   10.7813  -15.2744    0.0000 C   0  0
   11.4973  -14.8630    0.0000 C   0  0
   12.2116  -15.2774    0.0000 N   0  0
   10.7796  -16.1002    0.0000 O   0  0
   12.2099  -16.1031    0.0000 C   0  0
   12.9276  -14.8659    0.0000 C   0  0
 11 14  1  0
 17 18  1  0
  2  3  1  0
 15 16  2  0
  2  7  1  0
  7  8  1  0
  6 15  1  0
 16 17  1  0
 18  6  2  0
  3  4  2  0
 16 19  1  0
 23 24  1  0
  8  9  2  0
  4 24  1  0
 21 22  2  0
  9 10  1  0
  1  2  2  0
 10 11  2  0
 20 21  1  0
 22 23  1  0
 24 20  2  0
  4  5  1  0
 14 25  1  0
 11 12  1  0
 25 26  1  0
 23  1  1  0
 26 27  1  0
 12 13  2  0
 25 28  2  0
 13  8  1  0
 27 29  1  0
  5  6  1  0
 27 30  1  0
M  END