
          11280715072D 1   1.00000     0.00000     0

 25 27  0     0  0            999 V2000
    3.1000   -1.0375    0.0000 C   0  0  0  0  0  0           0  0  0
    3.1167   -1.8542    0.0000 C   0  0  0  0  0  0           0  0  0
    2.3750   -0.6375    0.0000 C   0  0  0  0  0  0           0  0  0
    1.6667   -1.0667    0.0000 C   0  0  0  0  0  0           0  0  0
    2.4167   -2.2875    0.0000 C   0  0  0  0  0  0           0  0  0
    1.6917   -1.8917    0.0000 C   0  0  0  0  0  0           0  0  0
    3.8042   -0.6042    0.0000 C   0  0  0  0  0  0           0  0  0
    4.5250   -1.0000    0.0000 C   0  0  0  0  0  0           0  0  0
    0.9042   -2.1667    0.0000 O   0  0  0  0  0  0           0  0  0
    0.8792   -0.8250    0.0000 C   0  0  0  0  0  0           0  0  0
    5.2292   -0.5667    0.0000 C   0  0  0  0  0  0           0  0  0
    0.4042   -1.5042    0.0000 C   0  0  0  0  0  0           0  0  0
    3.7792    0.2208    0.0000 O   0  0  0  0  0  0           0  0  0
    3.8417   -2.2417    0.0000 O   0  0  0  0  0  0           0  0  0
    2.3625    0.1875    0.0000 O   0  0  0  0  0  0           0  0  0
    2.4417   -3.1042    0.0000 O   0  0  0  0  0  0           0  0  0
    5.9542   -0.9625    0.0000 C   0  0  0  0  0  0           0  0  0
    6.6542   -0.5292    0.0000 C   0  0  0  0  0  0           0  0  0
    7.3792   -0.9167    0.0000 C   0  0  0  0  0  0           0  0  0
    8.0792   -0.4875    0.0000 O   0  0  0  0  0  0           0  0  0
    6.6917   -2.1792    0.0000 C   0  0  0  0  0  0           0  0  0
    5.9750   -1.7875    0.0000 C   0  0  0  0  0  0           0  0  0
    7.4042   -1.7500    0.0000 C   0  0  0  0  0  0           0  0  0
    1.6375    0.5833    0.0000 C   0  0  0  0  0  0           0  0  0
    3.1667   -3.5042    0.0000 C   0  0  0  0  0  0           0  0  0
  2  1  1  0     0  0
  3  1  2  0     0  0
  4  3  1  0     0  0
  5  2  2  0     0  0
  6  4  2  0     0  0
  7  1  1  0     0  0
  8  7  1  0     0  0
  9  6  1  0     0  0
 10  4  1  0     0  0
 11  8  2  0     0  0
 12 10  2  0     0  0
 13  7  2  0     0  0
 14  2  1  0     0  0
 15  3  1  0     0  0
 16  5  1  0     0  0
 17 11  1  0     0  0
 18 17  1  0     0  0
 19 18  2  0     0  0
 20 19  1  0     0  0
 21 22  1  0     0  0
 22 17  2  0     0  0
 23 21  2  0     0  0
 24 15  1  0     0  0
 25 16  1  0     0  0
  5  6  1  0     0  0
  9 12  1  0     0  0
 23 19  1  0     0  0
M  END