
  SciTegic01161211252D

 35 38  0  0  0  0            999 V2000
    7.8690   -4.8333    0.0000 O   0  0
    7.1532   -5.2433    0.0000 S   0  0
    7.8682   -5.6589    0.0000 O   0  0
    7.8380   -3.1637    0.0000 N   0  0
    8.4981   -2.6660    0.0000 C   0  0
    8.2332   -1.8846    0.0000 C   0  0
    7.4057   -1.8981    0.0000 C   0  0
    7.1638   -2.6871    0.0000 N   0  0
    6.9782   -1.1898    0.0000 C   0  0
    7.3812   -0.4709    0.0000 C   0  0
    6.9540    0.2360    0.0000 C   0  0
    6.1281    0.2210    0.0000 C   0  0
    5.7313   -0.5067    0.0000 C   0  0
    6.1566   -1.2106    0.0000 C   0  0
    8.6702   -1.1878    0.0000 C   0  0
    9.4959   -1.2223    0.0000 C   0  0
    9.9352   -0.5228    0.0000 C   0  0
    9.5458    0.2074    0.0000 C   0  0
    8.7168    0.2338    0.0000 C   0  0
    8.2854   -0.4664    0.0000 C   0  0
    7.8451   -3.9839    0.0000 C   0  0
    7.1472   -4.4194    0.0000 N   0  0
    6.4430   -5.6655    0.0000 N   0  0
    5.7286   -5.2572    0.0000 C   0  0
    5.0206   -5.6759    0.0000 C   0  0
    5.0254   -6.5009    0.0000 C   0  0
    5.7444   -6.9054    0.0000 C   0  0
    6.4587   -6.4891    0.0000 C   0  0
    5.7026    0.9231    0.0000 Cl  0  0
    4.3180   -6.9173    0.0000 C   0  0
    3.6035   -6.5129    0.0000 F   0  0
    4.3250   -7.7383    0.0000 F   0  0
    3.5986   -7.3185    0.0000 F   0  0
    8.5648   -4.3791    0.0000 N   0  0
    9.2668   -3.9534    0.0000 C   0  0
 17 18  2  0
  9 10  2  0
 18 19  1  0
  4  5  1  0
 19 20  2  0
 20 15  1  0
  6 15  1  0
 10 11  1  0
  4 21  1  0
 21 22  2  0
 22  2  1  0
 11 12  2  0
  2 23  1  0
 23 24  1  0
  5  6  1  0
 12 13  1  0
  6  7  1  0
 13 14  2  0
 14  9  1  0
 23 28  1  0
 24 25  1  0
 25 26  1  0
 26 27  1  0
 27 28  1  0
  7  9  1  0
 12 29  1  0
  7  8  2  0
 26 30  1  0
  8  4  1  0
 30 31  1  0
 15 16  2  0
 30 32  1  0
  2  1  2  0
 30 33  1  0
 16 17  1  0
 21 34  1  0
  3  2  2  0
 34 35  1  0
M  END