
  SciTegic02011314062D

 20 20  0  0  0  0            999 V2000
    0.8542   -4.6042    0.0000 C   0  0
    0.1417   -5.0125    0.0000 C   0  0
    1.5667   -5.0167    0.0000 C   0  0
   -0.5708   -4.6042    0.0000 C   0  0
    2.2792   -4.6000    0.0000 C   0  0
    2.9917   -5.0125    0.0000 C   0  0
    0.8542   -3.7792    0.0000 C   0  0
    0.1417   -5.8375    0.0000 C   0  0
   -0.5708   -3.7792    0.0000 C   0  0
   -1.2833   -5.0167    0.0000 C   0  0
    0.1417   -3.3625    0.0000 C   0  0
    2.2750   -3.7750    0.0000 C   0  0
    2.9953   -5.8375    0.0000 C   0  0
    2.2826   -6.2531    0.0000 C   0  0
    2.2862   -7.0781    0.0000 C   0  0
    1.5735   -7.4937    0.0000 C   0  0
    1.5771   -8.3187    0.0000 C   0  0
    3.0007   -7.4906    0.0000 C   0  0
    0.8644   -8.7343    0.0000 O   0  0
    2.2933   -8.7281    0.0000 O   0  0
  2  1  1  0
  3  1  2  0
  4  2  2  0
  5  3  1  0
  6  5  2  0
  7  1  1  0
  8  2  1  0
  9 11  1  0
 10  4  1  0
 11  7  1  0
 12  5  1  0
  4  9  1  0
  6 13  1  0
 13 14  2  0
 14 15  1  0
 15 16  2  0
 16 17  1  0
 15 18  1  0
 17 19  1  0
 17 20  2  0
M  END