
          05270816392D 1   1.00000     0.00000     0

 37 42  0     1  0            999 V2000
   -4.8599    2.5300    0.0000 C   0  0  0  0  0  0           0  0  0
   -4.8612    1.7070    0.0000 C   0  0  0  0  0  0           0  0  0
   -3.4366    2.5340    0.0000 C   0  0  0  0  0  0           0  0  0
   -4.1455    2.9428    0.0000 C   0  0  0  0  0  0           0  0  0
   -3.4334    1.7075    0.0000 C   0  0  0  0  0  0           0  0  0
   -4.1449    1.2930    0.0000 C   0  0  0  0  0  0           0  0  0
   -4.1462    0.4709    0.0000 C   0  0  0  0  0  0           0  0  0
   -3.4332    0.0570    0.0000 C   0  0  0  0  0  0           0  0  0
   -5.4771    1.1550    0.0000 N   0  0  0  0  0  0           0  0  0
   -4.9306    0.2164    0.0000 C   0  0  0  0  0  0           0  0  0
   -2.7187    1.2953    0.0000 C   0  0  2  0  0  0           0  0  0
   -2.7179    0.4675    0.0000 C   0  0  2  0  0  0           0  0  0
   -2.0045    0.0566    0.0000 N   0  0  3  0  0  0           0  0  0
   -1.2874    0.4690    0.0000 C   0  0  0  0  0  0           0  0  0
   -1.2883    1.2968    0.0000 C   0  0  1  0  0  0           0  0  0
   -2.0063    1.7122    0.0000 C   0  0  0  0  0  0           0  0  0
   -2.7271   -0.3529    0.0000 H   0  0  0  0  0  0           0  0  0
   -2.7271    2.1221    0.0000 H   0  0  0  0  0  0           0  0  0
   -0.5739    1.7094    0.0000 C   0  0  0  0  0  0           0  0  0
   -0.5739    2.5344    0.0000 O   0  0  0  0  0  0           0  0  0
    0.1407    1.2969    0.0000 N   0  0  3  0  0  0           0  0  0
    0.1355    0.4666    0.0000 C   0  0  0  0  0  0           0  0  0
    0.8459    0.0542    0.0000 C   0  0  0  0  0  0           0  0  0
    1.5628    0.4632    0.0000 N   0  0  3  0  0  0           0  0  0
    1.5647    1.2891    0.0000 C   0  0  0  0  0  0           0  0  0
    0.8499    1.7061    0.0000 C   0  0  0  0  0  0           0  0  0
    2.2757    0.0480    0.0000 C   0  0  0  0  0  0           0  0  0
    2.2676   -0.7758    0.0000 C   0  0  0  0  0  0           0  0  0
    2.9798   -1.1910    0.0000 C   0  0  0  0  0  0           0  0  0
    3.6967   -0.7811    0.0000 C   0  0  0  0  0  0           0  0  0
    3.6972    0.0482    0.0000 C   0  0  0  0  0  0           0  0  0
    2.9845    0.4596    0.0000 C   0  0  0  0  0  0           0  0  0
   -2.0048   -0.7683    0.0000 C   0  0  0  0  0  0           0  0  0
    4.4129   -1.1979    0.0000 N   0  3  0  0  0  0           0  0  0
    5.1284   -0.7872    0.0000 O   0  0  0  0  0  0           0  0  0
    4.4110   -2.0229    0.0000 O   0  5  0  0  0  0           0  0  0
   -5.2251   -0.5543    0.0000 Cl  0  0  0  0  0  0           0  0  0
 12 17  1  1     0  0
  7  8  1  0     0  0
 11 18  1  6     0  0
  8 12  1  0     0  0
 15 19  1  1     0  0
  3  4  2  0     0  0
 19 20  2  0     0  0
  2  9  1  0     0  0
 19 21  1  0     0  0
 21 22  1  0     0  0
  4  1  1  0     0  0
  7 10  2  0     0  0
  9 10  1  0     0  0
 11 12  1  0     0  0
  5  6  2  0     0  0
 21 26  1  0     0  0
 22 23  1  0     0  0
 23 24  1  0     0  0
 24 25  1  0     0  0
 25 26  1  0     0  0
  2  6  1  0     0  0
 24 27  1  0     0  0
 27 28  2  0     0  0
  5  3  1  0     0  0
 28 29  1  0     0  0
  1  2  2  0     0  0
 29 30  2  0     0  0
  5 11  1  0     0  0
 30 31  1  0     0  0
 11 16  1  0     0  0
 31 32  2  0     0  0
 32 27  1  0     0  0
 12 13  1  0     0  0
 13 33  1  0     0  0
 13 14  1  0     0  0
 14 15  1  0     0  0
 15 16  1  0     0  0
 34 35  2  0     0  0
 34 36  1  0     0  0
 30 34  1  0     0  0
  6  7  1  0     0  0
 10 37  1  0     0  0
M  CHG  2  34   1  36  -1
M  END