
          11280715102D 1   1.00000     0.00000     0

 36 39  0     1  0            999 V2000
   12.6625   -5.8542    0.0000 S   0  0  3  0  0  0           0  0  0
    7.5917   -4.1917    0.0000 C   0  0  0  0  0  0           0  0  0
    7.1125   -4.8667    0.0000 N   0  0  3  0  0  0           0  0  0
    8.3792   -4.4417    0.0000 C   0  0  0  0  0  0           0  0  0
   12.2625   -6.5667    0.0000 C   0  0  0  0  0  0           0  0  0
   13.0792   -5.1417    0.0000 N   0  0  0  0  0  0           0  0  0
   12.6667   -4.4292    0.0000 C   0  0  2  0  0  0           0  0  0
    8.3792   -5.2750    0.0000 C   0  0  0  0  0  0           0  0  0
    9.0917   -4.0292    0.0000 C   0  0  0  0  0  0           0  0  0
   10.5167   -4.0292    0.0000 C   0  0  0  0  0  0           0  0  0
    7.6000   -5.5292    0.0000 C   0  0  0  0  0  0           0  0  0
   13.3792   -4.0167    0.0000 C   0  0  0  0  0  0           0  0  0
    9.8125   -4.4417    0.0000 C   0  0  0  0  0  0           0  0  0
   11.4417   -6.6667    0.0000 S   0  0  0  0  0  0           0  0  0
   11.2417   -4.4375    0.0000 N   0  0  0  0  0  0           0  0  0
   11.8625   -5.6417    0.0000 O   0  0  0  0  0  0           0  0  0
   13.4542   -6.0667    0.0000 O   0  0  0  0  0  0           0  0  0
    7.3375   -3.4167    0.0000 O   0  0  0  0  0  0           0  0  0
   11.9542   -4.0250    0.0000 C   0  0  0  0  0  0           0  0  0
    6.4000   -4.4542    0.0000 C   0  0  0  0  0  0           0  0  0
   12.6042   -7.3167    0.0000 C   0  0  0  0  0  0           0  0  0
    3.5417   -3.6250    0.0000 N   0  0  0  0  0  0           0  0  0
   11.2875   -7.4667    0.0000 C   0  0  0  0  0  0           0  0  0
    9.0917   -5.6875    0.0000 C   0  0  0  0  0  0           0  0  0
   10.5167   -3.2042    0.0000 O   0  0  0  0  0  0           0  0  0
   13.3792   -3.1917    0.0000 O   0  0  0  0  0  0           0  0  0
    9.8125   -5.2750    0.0000 C   0  0  0  0  0  0           0  0  0
   12.0167   -7.8667    0.0000 C   0  0  0  0  0  0           0  0  0
   14.1000   -4.4292    0.0000 O   0  0  0  0  0  0           0  0  0
    5.6792   -4.8667    0.0000 C   0  0  0  0  0  0           0  0  0
    4.9667   -4.4542    0.0000 C   0  0  3  0  0  0           0  0  0
    4.2667   -3.2167    0.0000 C   0  0  0  0  0  0           0  0  0
    3.5417   -4.4542    0.0000 C   0  0  0  0  0  0           0  0  0
    4.9750   -3.6292    0.0000 C   0  0  0  0  0  0           0  0  0
    4.2542   -4.8667    0.0000 C   0  0  0  0  0  0           0  0  0
   12.2542   -5.1417    0.0000 H   0  0  0  0  0  0           0  0  0
  2  4  1  0     0  0
  3  2  1  0     0  0
  4  9  1  0     0  0
  5  1  1  0     0  0
  6  1  1  0     0  0
  7  6  1  1     0  0
  8 24  1  0     0  0
  9 13  2  0     0  0
 10 15  1  0     0  0
 11  8  1  0     0  0
 12  7  1  0     0  0
 13 10  1  0     0  0
 14  5  1  0     0  0
 15 19  1  0     0  0
 16  1  2  0     0  0
 17  1  2  0     0  0
 18  2  2  0     0  0
 19  7  1  0     0  0
 20  3  1  0     0  0
 21  5  2  0     0  0
 22 33  1  0     0  0
 23 14  1  0     0  0
 24 27  2  0     0  0
 25 10  2  0     0  0
 26 12  2  0     0  0
 27 13  1  0     0  0
 28 21  1  0     0  0
 29 12  1  0     0  0
 30 20  1  0     0  0
 31 30  1  0     0  0
 32 34  1  0     0  0
 33 35  1  0     0  0
 34 31  1  0     0  0
 35 31  1  0     0  0
  7 36  1  6     0  0
 23 28  2  0     0  0
  4  8  2  0     0  0
  3 11  1  0     0  0
 32 22  1  0     0  0
M  END