
  SciTegic12201110432D

 21 23  0  0  0  0            999 V2000
    0.7621    0.9679    0.0000 C   0  0
    1.4765    1.3804    0.0000 N   0  0
    2.1910    0.9679    0.0000 C   0  0
    2.1910    0.1429    0.0000 N   0  0
    1.4765   -0.2696    0.0000 C   0  0
    0.7621    0.1429    0.0000 C   0  0
   -0.0226   -0.1121    0.0000 C   0  0
   -0.5075    0.5554    0.0000 N   0  0
   -0.0226    1.2228    0.0000 N   0  0
   -0.2775   -0.8967    0.0000 C   0  0
    0.2745   -1.5098    0.0000 C   0  0
    0.0196   -2.2944    0.0000 C   0  0
   -0.7874   -2.4659    0.0000 C   0  0
   -1.3394   -1.8528    0.0000 C   0  0
   -1.0845   -1.0682    0.0000 C   0  0
   -0.2775    2.0074    0.0000 C   0  0
   -0.5324    2.7921    0.0000 C   0  0
   -1.0621    1.7525    0.0000 C   0  0
    0.5071    2.2624    0.0000 C   0  0
    1.4765   -1.0946    0.0000 N   0  0
   -1.0423   -3.2506    0.0000 Cl  0  0
  1  2  1  0
  1  6  2  0
  1  9  1  0
  3  2  2  0
  3  4  1  0
  5  4  2  0
  5  6  1  0
  5 20  1  0
  6  7  1  0
  7  8  2  0
 10  7  1  0
  9  8  1  0
 16  9  1  0
 10 11  1  0
 10 15  2  0
 11 12  2  0
 12 13  1  0
 13 14  2  0
 13 21  1  0
 14 15  1  0
 16 17  1  0
 16 18  1  0
 16 19  1  0
M  END