
          11280714462D 1   1.00000     0.00000     0

 40 42  0     1  0            999 V2000
    5.2292  -21.1792    0.0000 N   0  0  0  0  0  0           0  0  0
    4.5167  -20.7667    0.0000 C   0  0  0  0  0  0           0  0  0
   10.9542  -19.5292    0.0000 C   0  0  0  0  0  0           0  0  0
   10.2417  -19.9417    0.0000 C   0  0  2  0  0  0           0  0  0
   10.9667  -24.4875    0.0000 C   0  0  0  0  0  0           0  0  0
    3.8042  -21.1792    0.0000 C   0  0  0  0  0  0           0  0  0
   10.2542  -24.9000    0.0000 C   0  0  3  0  0  0           0  0  0
    9.5292  -21.1792    0.0000 S   0  0  0  0  0  0           0  0  0
    8.8125  -22.4292    0.0000 C   0  0  0  0  0  0           0  0  0
   10.2417  -20.7667    0.0000 C   0  0  0  0  0  0           0  0  0
   11.6667  -19.9417    0.0000 O   0  5  0  0  0  0           0  0  0
    4.5167  -19.9417    0.0000 C   0  0  0  0  0  0           0  0  0
   10.9667  -23.6542    0.0000 C   0  0  0  0  0  0           0  0  0
    9.5292  -22.0042    0.0000 C   0  0  1  0  0  0           0  0  0
   10.9542  -18.7000    0.0000 O   0  0  0  0  0  0           0  0  0
    8.0917  -22.0167    0.0000 C   0  0  0  0  0  0           0  0  0
    5.9500  -20.7667    0.0000 C   0  0  0  0  0  0           0  0  0
   10.2542  -23.2417    0.0000 C   0  0  0  0  0  0           0  0  0
   10.2542  -22.4167    0.0000 C   0  0  0  0  0  0           0  0  0
    3.0917  -20.7667    0.0000 C   0  0  0  0  0  0           0  0  0
    5.2292  -19.5292    0.0000 C   0  0  0  0  0  0           0  0  0
    3.8042  -19.5292    0.0000 C   0  0  0  0  0  0           0  0  0
    6.6667  -22.0167    0.0000 O   0  0  0  0  0  0           0  0  0
    7.3792  -22.4292    0.0000 C   0  0  0  0  0  0           0  0  0
   10.2542  -25.7250    0.0000 O   0  0  0  0  0  0           0  0  0
    6.6667  -21.1875    0.0000 C   0  0  0  0  0  0           0  0  0
    5.9500  -19.9417    0.0000 C   0  0  0  0  0  0           0  0  0
    3.0917  -19.9417    0.0000 C   0  0  0  0  0  0           0  0  0
    2.3667  -21.1875    0.0000 Cl  0  0  0  0  0  0           0  0  0
   12.6917  -20.0542    0.0000 Na  0  3  0  0  0  0           0  0  0
    8.8125  -23.2542    0.0000 C   0  0  0  0  0  0           0  0  0
    9.5250  -19.5292    0.0000 C   0  0  0  0  0  0           0  0  0
    8.0917  -23.6667    0.0000 C   0  0  0  0  0  0           0  0  0
   11.6792  -24.9000    0.0000 C   0  0  0  0  0  0           0  0  0
    9.5417  -24.4792    0.0000 C   0  0  0  0  0  0           0  0  0
    9.4250  -24.8917    0.0000 C   0  0  0  0  0  0           0  0  0
   11.6875  -23.2417    0.0000 C   0  0  0  0  0  0           0  0  0
    7.3792  -23.2542    0.0000 C   0  0  0  0  0  0           0  0  0
   12.4042  -24.4875    0.0000 C   0  0  0  0  0  0           0  0  0
   12.4042  -23.6542    0.0000 C   0  0  0  0  0  0           0  0  0
  2  1  1  0     0  0
  3  4  1  0     0  0
  4 10  1  0     0  0
  5 13  2  0     0  0
  6  2  2  0     0  0
  7  5  1  0     0  0
 14  8  1  6     0  0
  9 16  2  0     0  0
 10  8  1  0     0  0
 11  3  1  0     0  0
 12  2  1  0     0  0
 13 18  1  0     0  0
 14  9  1  0     0  0
 15  3  2  0     0  0
 16 24  1  0     0  0
 17  1  2  0     0  0
 18 19  1  0     0  0
 19 14  1  0     0  0
 20  6  1  0     0  0
 21 27  2  0     0  0
 22 12  2  0     0  0
 23 26  1  0     0  0
 24 23  1  0     0  0
 25  7  1  0     0  0
 26 17  1  0     0  0
 27 17  1  0     0  0
 28 22  1  0     0  0
 29 20  1  0     0  0
 31 33  2  0     0  0
  4 32  1  6     0  0
 33 38  1  0     0  0
 34  5  1  0     0  0
 35  7  1  0     0  0
 36  7  1  0     0  0
 37 13  1  0     0  0
 38 24  2  0     0  0
 39 40  1  0     0  0
 40 37  2  0     0  0
 21 12  1  0     0  0
 20 28  2  0     0  0
 31  9  1  0     0  0
 34 39  2  0     0  0
M  CHG  2  11  -1  30   1
M  END