
  SciTegic09081514182D

 50 54  0  0  0  0            999 V2000
    1.2968   -2.5495    0.0000 O   0  0
    1.2948   -3.7495    0.0000 S   0  0
    0.2567   -3.1476    0.0000 O   0  0
    1.2990   -0.7500    0.0000 N   0  0
    1.2990    0.7500    0.0000 C   0  0  1  0  0  0
    0.0000    1.5000    0.0000 C   0  0  2  0  0  0
   -1.2990    0.7500    0.0000 C   0  0
   -1.2990   -0.7500    0.0000 C   0  0  1  0  0  0
    0.0000   -1.5000    0.0000 C   0  0
    0.0000    3.0008    0.0000 C   0  0
   -1.2979    3.7529    0.0000 C   0  0
   -1.2955    5.2529    0.0000 C   0  0
    0.0047    6.0009    0.0000 C   0  0
    1.3026    5.2488    0.0000 C   0  0
    1.3002    3.7488    0.0000 C   0  0
    2.5987    1.5004    0.0000 C   0  0
    2.6012    3.0005    0.0000 C   0  0
    3.9014    3.7484    0.0000 C   0  0
    5.1993    2.9963    0.0000 C   0  0
    5.1969    1.4963    0.0000 C   0  0
    3.8967    0.7484    0.0000 C   0  0
    0.0000   -2.7000    0.0000 O   0  0
   -1.2626   -2.2300    0.0000 C   0  0
   -2.5235   -3.0440    0.0000 C   0  0
   -3.5910   -2.4960    0.0000 O   0  0
   -2.3233   -0.1247    0.0000 C   0  0
    2.5990   -1.5003    0.0000 C   0  0  2  0  0  0
    2.5957   -3.0011    0.0000 C   0  0
    3.8990   -0.7504    0.0000 C   0  0
    1.2915   -5.2503    0.0000 C   0  0
    0.2514   -5.8487    0.0000 C   0  0
    1.2895   -6.4503    0.0000 C   0  0
    6.2394    3.5947    0.0000 Cl  0  0
    2.3428    5.8472    0.0000 Cl  0  0
    5.3199   -0.7938    0.0000 C   0  0
    4.5678    0.5041    0.0000 C   0  0
    2.3297   -5.8523    0.0000 C   0  0
   -2.4499   -4.5430    0.0000 N   0  0
   -3.7108   -5.3571    0.0000 C   0  0
   -3.6394   -6.8554    0.0000 C   0  0
   -4.9013   -7.6664    0.0000 C   0  0
   -6.2345   -6.9791    0.0000 C   0  0
   -6.3060   -5.4809    0.0000 C   0  0
   -5.0441   -4.6698    0.0000 C   0  0
   -7.4987   -7.7880    0.0000 C   0  0
   -7.4437   -8.9868    0.0000 O   0  0
   -8.5646   -7.2367    0.0000 O   0  0
   -4.8267   -9.1654    0.0000 O   0  0
   -3.7593   -9.7137    0.0000 C   0  0
    6.2352    0.8947    0.0000 F   0  0
  2  1  2  0
  3  2  2  0
  4  5  1  0
  4  9  1  0
  5  6  1  0
  6  7  1  0
  7  8  1  0
  8  9  1  0
 10 11  2  0
 11 12  1  0
 12 13  2  0
 13 14  1  0
 14 15  2  0
 15 10  1  0
  6 10  1  6
 16 17  2  0
 17 18  1  0
 18 19  2  0
 19 20  1  0
 20 21  2  0
 21 16  1  0
  5 16  1  1
  9 22  2  0
  8 23  1  1
 23 24  1  0
 24 25  2  0
  8 26  1  0
  4 27  1  0
 27 28  1  0
 27 29  1  1
 28  2  1  0
  2 30  1  0
 30 31  1  0
 30 32  1  0
 19 33  1  0
 14 34  1  0
 35 29  1  0
 36 35  1  0
 29 36  1  0
 30 37  1  0
 24 38  1  0
 38 39  1  0
 39 40  2  0
 40 41  1  0
 41 42  2  0
 42 43  1  0
 43 44  2  0
 44 39  1  0
 42 45  1  0
 45 46  1  0
 45 47  2  0
 41 48  1  0
 48 49  1  0
 20 50  1  0
M  END