
  SciTegic11201309402D

 54 59  0  0  1  0            999 V2000
   12.6375   -3.9750    0.0000 S   0  0
   10.6250   -3.1375    0.0000 C   0  0
    6.3750   -4.7500    0.0000 C   0  0
    4.8000   -4.3375    0.0000 C   0  0  2  0  0  0
    5.5250   -4.7417    0.0000 C   0  0  1  0  0  0
    7.0625   -6.8000    0.0000 C   0  0  2  0  0  0
   10.8000   -2.3375    0.0000 C   0  0
    6.3625   -6.4000    0.0000 C   0  0  1  0  0  0
    9.8125   -3.2375    0.0000 C   0  0
    7.0792   -4.3292    0.0000 C   0  0  1  0  0  0
    7.9125   -6.8125    0.0000 C   0  0
    4.3750   -5.9875    0.0000 C   0  0  1  0  0  0
    6.3667   -5.5750    0.0000 O   0  0
   10.0750   -1.9292    0.0000 C   0  0
    4.3792   -5.1625    0.0000 O   0  0
    9.4667   -2.4792    0.0000 C   0  0
    3.6625   -6.4042    0.0000 O   0  0
    8.6167   -6.3875    0.0000 C   0  0  2  0  0  0
   12.0167   -3.4250    0.0000 C   0  0
   11.2375   -3.6875    0.0000 C   0  0
    5.5292   -3.7750    0.0000 C   0  0
    6.3792   -3.7792    0.0000 C   0  0
    7.9000   -3.5042    0.0000 C   0  0
    7.0625   -5.9875    0.0000 O   0  0
    7.0750   -3.5042    0.0000 N   0  0
   11.5750   -2.0750    0.0000 C   0  0
    9.1375   -4.2125    0.0000 C   0  0
    2.8167   -6.4000    0.0000 C   0  0  2  0  0  0
   13.2500   -4.5250    0.0000 O   0  0
   13.1875   -3.3625    0.0000 O   0  0
    7.9042   -5.9875    0.0000 C   0  0
    3.6625   -5.5792    0.0000 C   0  0
    8.3125   -4.2125    0.0000 O   0  0
   12.1875   -2.6250    0.0000 C   0  0
    8.3125   -2.7875    0.0000 O   0  0
   12.0792   -4.5875    0.0000 O   0  0
    7.9042   -7.6375    0.0000 N   0  0
    2.1125   -5.9917    0.0000 C   0  0
    2.8125   -5.5792    0.0000 C   0  0
    7.4542   -6.2875    0.0000 O   0  0
    5.3292   -4.2417    0.0000 O   0  0
    5.5167   -3.0917    0.0000 N   0  0
    2.8125   -7.2167    0.0000 C   0  0
    8.6125   -7.2125    0.0000 O   0  0
    2.0917   -7.6250    0.0000 N   0  0
    3.6542   -4.7542    0.0000 N   0  0
    9.9042   -1.1250    0.0000 C   0  0
    8.6875   -2.2292    0.0000 C   0  0
    8.6125   -5.5625    0.0000 C   0  0
    8.6167   -8.0500    0.0000 C   0  0
    2.0875   -8.4500    0.0000 C   0  0
    3.5250   -7.6375    0.0000 C   0  0
    9.1250   -0.8750    0.0000 C   0  0
    8.5125   -1.4292    0.0000 C   0  0
  2 20  1  0
 10  3  1  0
  4 21  1  0
  5  3  1  0
  8  6  1  0
  7 26  1  0
  8 13  1  1
  9  2  1  0
 10 25  1  1
  6 11  1  0
 12 15  1  1
 13  3  1  0
 14  7  1  0
  4 15  1  6
 16  9  1  0
 12 17  1  0
 18 31  1  0
 19  1  1  0
 20 19  2  0
 21 22  1  0
 22 10  1  0
 23 33  1  0
 24  8  1  0
 25 23  1  0
 26 34  2  0
 27  9  1  0
 28 17  1  0
 29  1  2  0
 30  1  2  0
 31 24  1  0
 32 12  1  0
 33 27  1  0
 34 19  1  0
 35 23  2  0
 36  1  1  0
 37 11  1  0
 38 39  1  0
 39 32  1  0
  6 40  1  6
  5 41  1  6
 42 21  1  0
 28 43  1  1
 18 44  1  6
 45 43  1  0
 46 32  1  0
 47 14  1  0
 48 16  1  0
 49 18  1  0
 50 37  1  0
 51 45  1  0
 52 43  1  0
 53 47  2  0
 54 48  2  0
  2  7  2  0
 16 14  2  0
 54 53  1  0
  4  5  1  0
 18 11  1  0
 38 28  1  0
M  END