
  SciTegic09261414532D

 45 51  0  0  0  0            999 V2000
   32.9186   -3.6184    0.0000 N   0  0
   32.1329   -3.8257    0.0000 C   0  0
   32.0883   -4.6417    0.0000 N   0  0
   33.3658   -4.3011    0.0000 C   0  0
   32.8506   -4.9309    0.0000 C   0  0
   33.1388   -5.6899    0.0000 C   0  0
   33.9417   -5.8202    0.0000 C   0  0
   34.4558   -5.1855    0.0000 C   0  0
   34.1649   -4.4290    0.0000 C   0  0
   31.3728   -3.5308    0.0000 C   0  0
   31.2512   -2.7215    0.0000 C   0  0
   30.4909   -2.4239    0.0000 C   0  0
   29.8517   -2.9344    0.0000 C   0  0
   29.9777   -3.7461    0.0000 C   0  0
   30.7380   -4.0400    0.0000 C   0  0
   25.6534   -1.0442    0.0000 C   0  0
   25.6523   -1.8637    0.0000 C   0  0
   26.3603   -2.2727    0.0000 C   0  0
   26.3585   -0.6353    0.0000 C   0  0
   27.0672   -1.0406    0.0000 C   0  0
   27.0674   -1.8637    0.0000 C   0  0
   27.8504   -2.1179    0.0000 N   0  0
   28.3341   -1.4518    0.0000 C   0  0
   27.8500   -0.7860    0.0000 N   0  0
   28.1031   -2.8950    0.0000 C   0  0
   29.1481   -1.4501    0.0000 N   0  0
   29.5563   -2.1592    0.0000 C   0  0
   30.3727   -2.1593    0.0000 C   0  0
   30.7819   -1.4509    0.0000 C   0  0
   30.3687   -0.7410    0.0000 C   0  0
   29.5536   -0.7444    0.0000 C   0  0
   31.5991   -1.4496    0.0000 C   0  0
   32.0089   -2.1566    0.0000 O   0  0
   32.8261   -2.1552    0.0000 C   0  0
   27.5565   -3.5025    0.0000 C   0  0
   26.7589   -3.3314    0.0000 C   0  0
   26.2125   -3.9380    0.0000 C   0  0
   26.4651   -4.7161    0.0000 C   0  0
   27.2692   -4.8841    0.0000 C   0  0
   27.8121   -4.2762    0.0000 C   0  0
   33.2358   -2.8622    0.0000 C   0  0
   32.0065   -0.7412    0.0000 O   0  0
   34.0502   -2.8116    0.0000 C   0  0
   34.5021   -3.4936    0.0000 C   0  0
   34.4104   -2.0795    0.0000 C   0  0
  1  2  1  0
  2  3  2  0
  3  5  1  0
  4  1  1  0
  4  5  2  0
  5  6  1  0
  6  7  2  0
  7  8  1  0
  8  9  2  0
  9  4  1  0
 10 11  2  0
 11 12  1  0
 12 13  2  0
 13 14  1  0
 14 15  2  0
 15 10  1  0
  2 10  1  0
 16 17  2  0
 17 18  1  0
 18 21  2  0
 20 19  2  0
 19 16  1  0
 20 21  1  0
 21 22  1  0
 22 23  1  0
 23 24  2  0
 24 20  1  0
 22 25  1  0
 26 27  1  0
 27 28  1  0
 28 29  1  0
 29 30  1  0
 30 31  1  0
 31 26  1  0
 23 26  1  0
 29 32  1  0
 32 33  1  0
 33 34  1  0
 25 35  1  0
 35 36  2  0
 36 37  1  0
 37 38  2  0
 38 39  1  0
 39 40  2  0
 40 35  1  0
 34 41  1  0
 41  1  1  0
 32 42  2  0
 43 44  1  0
 43 45  1  0
 41 43  1  0
M  END