
  Mrv0541 04051115152D          

 11 11  0  0  0  0            999 V2000
    1.8867   -0.7187    0.0000 O   0  0  0  0  0  0  0  0  0  0  0  0
    1.1723   -0.3062    0.0000 C   0  0  0  0  0  0  0  0  0  0  0  0
    0.4578   -0.7187    0.0000 C   0  0  0  0  0  0  0  0  0  0  0  0
    1.1723    0.5188    0.0000 N   0  0  0  0  0  0  0  0  0  0  0  0
    0.4578    0.9313    0.0000 C   0  0  0  0  0  0  0  0  0  0  0  0
    0.4578    1.7563    0.0000 N   0  0  0  0  0  0  0  0  0  0  0  0
   -0.2567    0.5188    0.0000 N   0  0  0  0  0  0  0  0  0  0  0  0
   -0.2567   -0.3062    0.0000 C   0  0  0  0  0  0  0  0  0  0  0  0
   -0.9712   -0.7187    0.0000 C   0  0  0  0  0  0  0  0  0  0  0  0
   -1.6856   -0.3062    0.0000 C   0  0  0  0  0  0  0  0  0  0  0  0
   -2.4001   -0.7187    0.0000 C   0  0  0  0  0  0  0  0  0  0  0  0
  2  1  2  0  0  0  0
  3  2  1  0  0  0  0
  2  4  1  0  0  0  0
  3  8  2  0  0  0  0
  5  4  1  0  0  0  0
  5  6  1  0  0  0  0
  5  7  2  0  0  0  0
  8  7  1  0  0  0  0
  8  9  1  0  0  0  0
  9 10  1  0  0  0  0
 11 10  1  0  0  0  0
M  END