
  SciTegic06051313552D

 28 31  0  0  0  0            999 V2000
    0.2416  -32.2176    0.0000 C   0  0
    1.0648  -32.2187    0.0000 C   0  0
    1.4755  -31.5075    0.0000 N   0  0
   -0.1725  -31.5093    0.0000 N   0  0
    0.2379  -30.7974    0.0000 C   0  0
    1.0669  -30.7953    0.0000 C   0  0
    1.3216  -30.0063    0.0000 C   0  0
    0.6491  -29.5209    0.0000 C   0  0
   -0.0216  -30.0098    0.0000 N   0  0
    2.0416  -29.6036    0.0000 C   0  0
    2.7504  -30.0257    0.0000 N   0  0
    2.0527  -28.7787    0.0000 O   0  0
    1.4776  -32.9361    0.0000 C   0  0
    1.4769  -33.7611    0.0000 C   0  0
    2.1916  -33.3492    0.0000 C   0  0
    3.4703  -29.6229    0.0000 C   0  0  1  0  0  0
    3.4818  -28.7978    0.0000 C   0  0
    4.1791  -30.0451    0.0000 C   0  0
    4.1488  -28.3122    0.0000 N   0  0
    2.7727  -28.3759    0.0000 O   0  0
    4.9637  -28.4393    0.0000 C   0  0
    5.0920  -27.6244    0.0000 C   0  0
    4.2770  -27.4961    0.0000 C   0  0
    5.7608  -27.1349    0.0000 C   0  0
    6.4278  -26.6495    0.0000 N   0  0
    4.1680  -30.8700    0.0000 C   0  0
    4.8991  -29.6423    0.0000 C   0  0
    4.8916  -30.4536    0.0000 C   0  0
  1  2  2  0
  2  3  1  0
  3  6  2  0
  5  4  2  0
  4  1  1  0
  5  6  1  0
  6  7  1  0
  7  8  2  0
  8  9  1  0
  9  5  1  0
  7 10  1  0
 10 11  1  0
 10 12  2  0
 14 13  1  0
 15 14  1  0
 13 15  1  0
  2 13  1  0
 11 16  1  0
 16 17  1  1
 16 18  1  0
 17 19  1  0
 17 20  2  0
 19 21  1  0
 21 22  1  0
 22 23  1  0
 23 19  1  0
 24 25  3  0
 22 24  1  0
 18 26  1  0
 18 27  1  0
 18 28  1  0
M  END