
  SciTegic12171313032D

 26 28  0  0  0  0            999 V2000
    8.8350  -13.3763    0.0000 C   0  0
    8.8338  -14.1958    0.0000 C   0  0
    9.5419  -14.6048    0.0000 N   0  0
   10.2515  -14.1954    0.0000 C   0  0
   10.2487  -13.3727    0.0000 C   0  0
    9.5401  -12.9674    0.0000 N   0  0
   10.9599  -14.6029    0.0000 N   0  0
   10.9549  -12.9615    0.0000 N   0  0
   10.9518  -12.1443    0.0000 C   0  0  1  0  0  0
   11.6580  -11.7330    0.0000 C   0  0
   10.2426  -11.7383    0.0000 C   0  0
   12.3625  -12.1425    0.0000 C   0  0
   13.0682  -11.7319    0.0000 C   0  0
   13.0655  -10.9138    0.0000 C   0  0
   12.3513  -10.5081    0.0000 C   0  0
   11.6485  -10.9210    0.0000 C   0  0
    8.1292  -12.9681    0.0000 C   0  0
    8.1304  -12.1498    0.0000 C   0  0
    7.4234  -11.7414    0.0000 C   0  0
    6.7148  -12.1502    0.0000 C   0  0
    6.7177  -12.9716    0.0000 C   0  0
    7.4252  -13.3763    0.0000 C   0  0
    6.0096  -13.3807    0.0000 C   0  0
    5.3003  -12.9748    0.0000 O   0  0
    6.0126  -14.1979    0.0000 O   0  0
    6.0065  -11.7427    0.0000 C   0  0
  1  2  2  0
  2  3  1  0
  3  4  2  0
  4  5  1  0
  5  6  2  0
  6  1  1  0
  4  7  1  0
  5  8  1  0
  8  9  1  0
  9 10  1  0
  9 11  1  6
 10 12  2  0
 12 13  1  0
 13 14  2  0
 14 15  1  0
 15 16  2  0
 16 10  1  0
 17 18  2  0
 18 19  1  0
 19 20  2  0
 20 21  1  0
 21 22  2  0
 22 17  1  0
  1 17  1  0
 23 24  1  0
 23 25  2  0
 21 23  1  0
 20 26  1  0
M  END