
          02060813472D 1   1.00000     0.00000     0

 50 53  0     1  0            999 V2000
   -2.3192  -15.8865    0.0000 C   0  0  2  0  0  0           0  0  0
   -1.6895  -16.4203    0.0000 C   0  0  0  0  0  0           0  0  0
   -0.9111  -16.1374    0.0000 N   0  0  3  0  0  0           0  0  0
   -1.8338  -17.2328    0.0000 O   0  0  0  0  0  0           0  0  0
   -2.3260  -15.0576    0.0000 C   0  0  0  0  0  0           0  0  0
   -3.0401  -14.6481    0.0000 C   0  0  0  0  0  0           0  0  0
   -3.0432  -13.8228    0.0000 C   0  0  0  0  0  0           0  0  0
   -3.7602  -13.4133    0.0000 C   0  0  0  0  0  0           0  0  0
   -4.4768  -13.8316    0.0000 C   0  0  0  0  0  0           0  0  0
   -4.4696  -14.6616    0.0000 C   0  0  0  0  0  0           0  0  0
   -3.7517  -15.0654    0.0000 C   0  0  0  0  0  0           0  0  0
   -0.2260  -16.5971    0.0000 C   0  0  1  0  0  0           0  0  0
    0.4262  -16.0887    0.0000 C   0  0  0  0  0  0           0  0  0
    0.1433  -15.3103    0.0000 C   0  0  0  0  0  0           0  0  0
   -0.6796  -15.3389    0.0000 C   0  0  0  0  0  0           0  0  0
   -0.1983  -17.4199    0.0000 C   0  0  0  0  0  0           0  0  0
   -0.8984  -17.8613    0.0000 O   0  0  0  0  0  0           0  0  0
    1.2280  -17.3735    0.0000 C   0  0  2  0  0  0           0  0  0
    1.9557  -17.7589    0.0000 C   0  0  0  0  0  0           0  0  0
    1.2002  -16.5465    0.0000 C   0  0  0  0  0  0           0  0  0
    1.9003  -16.1091    0.0000 C   0  0  0  0  0  0           0  0  0
    2.6255  -16.5004    0.0000 C   0  0  0  0  0  0           0  0  0
    3.3290  -16.0599    0.0000 C   0  0  0  0  0  0           0  0  0
    3.2977  -15.2357    0.0000 C   0  0  0  0  0  0           0  0  0
    2.5623  -14.8467    0.0000 C   0  0  0  0  0  0           0  0  0
    1.8675  -15.2864    0.0000 C   0  0  0  0  0  0           0  0  0
    1.9877  -18.5859    0.0000 O   0  0  0  0  0  0           0  0  0
    3.3857  -17.7098    0.0000 C   0  0  2  0  0  0           0  0  0
    4.0857  -17.2724    0.0000 C   0  0  0  0  0  0           0  0  0
    3.4133  -18.5368    0.0000 C   0  0  0  0  0  0           0  0  0
    4.1454  -18.9264    0.0000 C   0  0  0  0  0  0           0  0  0
    4.1718  -19.7491    0.0000 C   0  0  0  0  0  0           0  0  0
    4.8984  -20.1386    0.0000 C   0  0  0  0  0  0           0  0  0
    5.6041  -19.7012    0.0000 C   0  0  0  0  0  0           0  0  0
    5.5680  -18.8679    0.0000 C   0  0  0  0  0  0           0  0  0
    4.0580  -16.4496    0.0000 O   0  0  0  0  0  0           0  0  0
   -3.0651  -16.2357    0.0000 N   0  0  0  0  0  0           0  0  0
   -3.1355  -17.0563    0.0000 C   0  0  0  0  0  0           0  0  0
   -3.8814  -17.4056    0.0000 C   0  0  0  0  0  0           0  0  0
   -3.9519  -18.2261    0.0000 C   0  0  0  0  0  0           0  0  0
    4.8126  -17.6596    0.0000 N   0  0  0  0  0  0           0  0  0
    4.8409  -18.4827    0.0000 C   0  0  0  0  0  0           0  0  0
    5.5114  -17.2236    0.0000 C   0  0  0  0  0  0           0  0  0
    6.2383  -17.6108    0.0000 C   0  0  0  0  0  0           0  0  0
    6.9371  -17.1748    0.0000 C   0  0  0  0  0  0           0  0  0
   -2.3318  -13.4080    0.0000 C   0  0  0  0  0  0           0  0  0
   -3.7443  -15.8890    0.0000 C   0  0  0  0  0  0           0  0  0
   -5.1994  -13.4255    0.0000 O   0  0  0  0  0  0           0  0  0
    0.5283  -17.8106    0.0000 N   0  0  0  0  0  0           0  0  0
    2.6566  -17.3237    0.0000 N   0  0  0  0  0  0           0  0  0
 12 13  1  0     0  0
 13 14  1  0     0  0
 14 15  1  0     0  0
 15  3  1  0     0  0
 12 16  1  1     0  0
 16 17  2  0     0  0
 18 19  1  0     0  0
 18 20  1  1     0  0
 20 21  1  0     0  0
 21 22  2  0     0  0
 22 23  1  0     0  0
 23 24  2  0     0  0
 24 25  1  0     0  0
 25 26  2  0     0  0
 26 21  1  0     0  0
 19 27  2  0     0  0
 28 29  1  0     0  0
 28 30  1  6     0  0
 30 31  1  0     0  0
 31 32  2  0     0  0
 32 33  1  0     0  0
 33 34  2  0     0  0
 34 35  1  0     0  0
 35 42  2  0     0  0
 42 31  1  0     0  0
 29 36  2  0     0  0
  1 37  1  1     0  0
  1  2  1  0     0  0
 37 38  1  0     0  0
  2  3  1  0     0  0
 38 39  1  0     0  0
  2  4  2  0     0  0
 39 40  2  0     0  0
  1  5  1  0     0  0
 29 41  1  0     0  0
  5  6  1  0     0  0
  6  7  2  0     0  0
 41 43  1  0     0  0
  7  8  1  0     0  0
 43 44  1  0     0  0
  8  9  2  0     0  0
 44 45  2  0     0  0
  9 10  1  0     0  0
  7 46  1  0     0  0
 10 11  2  0     0  0
 11 47  1  0     0  0
 11  6  1  0     0  0
  3 12  1  0     0  0
 16 49  1  0     0  0
 49 18  1  0     0  0
  9 48  1  0     0  0
 19 50  1  0     0  0
 50 28  1  0     0  0
M  END