
  SciTegic02271514372D

 24 26  0  0  0  0            999 V2000
   14.5475   -8.5789    0.0000 C   0  0
   13.8339   -8.9855    0.0000 C   0  0
   13.1278   -8.5717    0.0000 C   0  0
   13.1322   -7.7542    0.0000 C   0  0
   13.8458   -7.3476    0.0000 C   0  0
   14.5514   -7.7605    0.0000 C   0  0
   15.2556   -8.9962    0.0000 S   0  0
   15.6682   -9.7062    0.0000 O   0  0
   15.9687   -8.5844    0.0000 N   0  0
   18.1001   -9.8143    0.0000 C   0  0
   18.1001   -8.9971    0.0000 C   0  0
   17.3869   -8.5844    0.0000 C   0  0
   16.6778   -8.9971    0.0000 C   0  0
   16.6778   -9.8143    0.0000 C   0  0
   17.3869  -10.2270    0.0000 N   0  0
   19.3616   -9.4057    0.0000 C   0  0
   18.8773  -10.0690    0.0000 N   0  0
   18.8773   -8.7425    0.0000 N   0  0
   20.1788   -9.4057    0.0000 O   0  0
   15.9687  -10.2270    0.0000 O   0  0
   15.9687  -11.0442    0.0000 C   0  0
   12.4142   -8.9783    0.0000 Cl  0  0
   13.8320   -9.8075    0.0000 Cl  0  0
   14.8415   -9.6990    0.0000 O   0  0
  1  2  1  0
  2  3  2  0
  3  4  1  0
  4  5  2  0
  5  6  1  0
  1  6  2  0
  7  8  2  0
  7  9  1  0
  1  7  1  0
 10 11  1  0
 11 12  2  0
 12 13  1  0
 13 14  2  0
 14 15  1  0
 10 15  2  0
 16 17  1  0
 16 18  1  0
 10 17  1  0
 11 18  1  0
 16 19  2  0
 20 21  1  0
 14 20  1  0
  9 13  1  0
  3 22  1  0
  2 23  1  0
  7 24  2  0
M  END