
  SciTegic12231509382D

 30 33  0  0  0  0            999 V2000
    4.8825  -15.8319    0.0000 C   0  0
    4.8808  -16.6605    0.0000 C   0  0
    5.5972  -17.0736    0.0000 C   0  0
    5.5945  -15.4190    0.0000 C   0  0
    4.1666  -15.4197    0.0000 O   0  0
    3.4509  -15.8325    0.0000 C   0  0
    4.1644  -17.0722    0.0000 C   0  0
    3.4533  -16.6588    0.0000 N   0  0
    4.1635  -17.8972    0.0000 O   0  0
    6.3118  -15.8306    0.0000 C   0  0
    6.3088  -16.6584    0.0000 C   0  0
    7.0258  -17.0686    0.0000 C   0  0
    7.7384  -16.6526    0.0000 C   0  0
    7.7354  -15.8243    0.0000 C   0  0
    7.0215  -15.4156    0.0000 N   0  0
    7.0285  -17.8936    0.0000 O   0  0
    7.7414  -18.3039    0.0000 C   0  0
    7.7401  -19.1238    0.0000 C   0  0
    8.4523  -19.5340    0.0000 C   0  0
    9.1651  -19.1216    0.0000 C   0  0
    9.1612  -18.2948    0.0000 C   0  0
    8.4485  -17.8883    0.0000 C   0  0
    9.8736  -17.8786    0.0000 Cl  0  0
    9.8807  -19.5321    0.0000 N   0  0
   10.5940  -19.1176    0.0000 C   0  0
   11.3096  -19.5281    0.0000 N   0  0
   10.5917  -18.2926    0.0000 O   0  0
   12.0230  -19.1136    0.0000 C   0  0
   12.8457  -19.1102    0.0000 C   0  0
   12.4312  -18.3969    0.0000 C   0  0
  1  2  2  0
  2  3  1  0
  3 11  2  0
 10  4  2  0
  4  1  1  0
  1  5  1  0
  5  6  1  0
  2  7  1  0
  7  8  1  0
  7  9  2  0
 10 11  1  0
 11 12  1  0
 12 13  2  0
 13 14  1  0
 14 15  2  0
 15 10  1  0
 12 16  1  0
 16 17  1  0
 17 18  2  0
 18 19  1  0
 19 20  2  0
 20 21  1  0
 21 22  2  0
 22 17  1  0
 21 23  1  0
 20 24  1  0
 24 25  1  0
 25 26  1  0
 25 27  2  0
 26 28  1  0
 29 28  1  0
 30 29  1  0
 28 30  1  0
M  END