
  SciTegic09171211542D

 38 40  0  0  0  0            999 V2000
   20.0884   -8.3287    0.0000 C   0  0
   20.8039   -7.9159    0.0000 C   0  0
   21.5163   -8.3304    0.0000 C   0  0
   21.5136   -9.1563    0.0000 C   0  0
   20.7926   -9.5659    0.0000 C   0  0
   20.0831   -9.1490    0.0000 C   0  0
   22.2260   -9.5724    0.0000 C   0  0
   22.2218  -10.3974    0.0000 C   0  0
   22.9341  -10.8106    0.0000 C   0  0
   21.5052  -10.8012    0.0000 C   0  0
   23.6515  -10.4014    0.0000 O   0  0
   22.9320  -11.6292    0.0000 O   0  0
   21.4933  -11.6226    0.0000 O   0  0
   20.7948  -10.3814    0.0000 O   0  0
   19.3753   -7.9138    0.0000 C   0  0
   12.2331   -9.5944    0.0000 C   0  0
   12.9495   -9.1810    0.0000 C   0  0
   12.9466   -8.3505    0.0000 C   0  0
   12.2313   -7.9414    0.0000 C   0  0
   11.5182   -9.1815    0.0000 C   0  0
   11.5195   -8.3526    0.0000 C   0  0
   10.7315   -8.0952    0.0000 S   0  0
   10.2432   -8.7651    0.0000 C   0  0
   10.7295   -9.4364    0.0000 N   0  0
   13.6596   -7.9353    0.0000 N   0  0
   14.3756   -8.3451    0.0000 C   0  0
   15.0885   -7.9299    0.0000 C   0  0
   14.3787   -9.1701    0.0000 O   0  0
   15.8045   -8.3397    0.0000 C   0  0
   16.5174   -7.9245    0.0000 N   0  0
   17.2334   -8.3343    0.0000 C   0  0
   17.9464   -7.9192    0.0000 N   0  0
   17.2365   -9.1593    0.0000 O   0  0
   18.6624   -8.3290    0.0000 C   0  0
    9.4182   -8.7639    0.0000 S   0  0
    9.0068   -8.0489    0.0000 C   0  0
    8.1818   -8.0477    0.0000 C   0  0
    7.7703   -7.3326    0.0000 C   0  0
 18 19  2  0
 19 21  1  0
 20 21  2  0
  4  5  1  0
  8 10  1  0
  2  3  1  0
  5  6  2  0
  9 11  1  0
 21 22  1  0
 22 23  1  0
 23 24  2  0
 24 20  1  0
  9 12  2  0
 18 25  1  0
  6  1  1  0
 25 26  1  0
  1  2  2  0
 26 27  1  0
 10 13  1  0
 26 28  2  0
 10 14  2  0
 27 29  1  0
  4  7  1  0
 29 30  1  0
  1 15  1  0
 30 31  1  0
  3  4  2  0
 31 32  1  0
 20 16  1  0
 31 33  2  0
  7  8  1  0
 32 34  1  0
 34 15  1  0
 16 17  2  0
 23 35  1  0
 35 36  1  0
 17 18  1  0
 36 37  1  0
  8  9  1  0
 37 38  1  0
M  END