
  SciTegic01091216402D

 24 26  0  0  0  0            999 V2000
    4.7408   -4.0222    0.0000 C   0  0
    5.5282   -3.7761    0.0000 C   0  0
    5.5393   -2.9510    0.0000 C   0  0
    4.7553   -2.6862    0.0000 C   0  0
    4.2658   -3.3492    0.0000 C   0  0
    2.9592   -3.0706    0.0000 N   0  0
    3.0443   -3.8927    0.0000 N   0  0
    3.8512   -4.0653    0.0000 C   0  0
    3.7122   -2.7383    0.0000 C   0  0
    2.2460   -2.6607    0.0000 C   0  0
    1.5317   -3.0734    0.0000 N   0  0
    2.2450   -1.8345    0.0000 N   0  0
    2.9594   -1.4218    0.0000 C   0  0
    3.6747   -1.8353    0.0000 C   0  0
    0.8158   -2.6558    0.0000 S   0  0
    1.2262   -1.9467    0.0000 O   0  0
    0.1042   -3.0755    0.0000 C   0  0
    0.1125   -3.9004    0.0000 C   0  0
   -0.5950   -4.3201    0.0000 C   0  0
   -1.3150   -3.9149    0.0000 C   0  0
   -1.3233   -3.0899    0.0000 C   0  0
   -0.6117   -2.6702    0.0000 C   0  0
   -0.5866   -5.1451    0.0000 Cl  0  0
    0.2250   -2.0667    0.0000 O   0  0
  2  3  1  0
  3  4  1  0
  4  5  1  0
  5  1  1  0
  6  7  1  0
  7  8  2  0
  8  5  1  0
  5  9  1  0
  6  9  1  0
 10 11  2  0
 10 12  1  0
  6 10  1  0
 13 14  1  0
 12 13  1  0
 15 16  2  0
 17 18  1  0
 18 19  2  0
 19 20  1  0
 20 21  2  0
 21 22  1  0
 17 22  2  0
 15 17  1  0
 19 23  1  0
 11 15  1  0
  1  2  1  0
 15 24  2  0
M  END