
  SciTegic05191616042D

 22 24  0  0  0  0            999 V2000
   -4.1909    4.7008    0.0000 C   0  0
   -4.9054    4.2883    0.0000 C   0  0
   -5.6198    4.7008    0.0000 C   0  0
   -5.6198    5.5258    0.0000 C   0  0
   -4.9054    5.9383    0.0000 C   0  0
   -4.1909    5.5258    0.0000 C   0  0
   -6.3343    5.9383    0.0000 F   0  0
   -4.9054    3.4633    0.0000 F   0  0
   -3.4764    4.2883    0.0000 C   0  0
   -3.8889    3.5738    0.0000 O   0  0
   -2.7620    3.8758    0.0000 C   0  0
   -3.0639    5.0027    0.0000 C   0  0
   -2.7620    3.0508    0.0000 N   0  0
   -2.2389    5.0027    0.0000 N   0  0
   -3.1745    1.7812    0.0000 C   0  0
   -3.4294    2.5659    0.0000 N   0  0
   -2.0945    2.5659    0.0000 C   0  0
   -2.3495    1.7812    0.0000 N   0  0
   -0.9694    5.4152    0.0000 N   0  0
   -0.9694    4.5902    0.0000 C   0  0
   -1.7540    4.3353    0.0000 N   0  0
   -1.7540    5.6702    0.0000 C   0  0
  1  2  1  0
  1  6  2  0
  2  3  2  0
  3  4  1  0
  4  5  2  0
  5  6  1  0
  4  7  1  0
  2  8  1  0
  1  9  1  0
  9 10  1  0
  9 11  1  0
  9 12  1  0
 11 13  1  0
 12 14  1  0
 16 13  1  0
 13 17  1  0
 15 16  2  0
 17 18  2  0
 15 18  1  0
 21 14  1  0
 14 22  1  0
 19 20  1  0
 20 21  2  0
 19 22  2  0
M  END