
          11280715452D 1   1.00000     0.00000     0

 32 35  0     1  0            999 V2000
   -0.3625   -0.0792    0.0000 N   0  0  3  0  0  0           0  0  0
   -0.6208    0.7000    0.0000 C   0  0  0  0  0  0           0  0  0
    0.0417    1.1875    0.0000 N   0  0  3  0  0  0           0  0  0
   -1.0375   -0.5667    0.0000 C   0  0  0  0  0  0           0  0  0
    0.7167    0.7000    0.0000 C   0  0  0  0  0  0           0  0  0
    0.4542   -0.0792    0.0000 C   0  0  1  0  0  0           0  0  0
   -1.0458   -1.4000    0.0000 S   0  0  3  0  0  0           0  0  0
   -1.4458    0.7000    0.0000 N   0  0  0  0  0  0           0  0  0
   -1.7000   -0.0792    0.0000 C   0  0  0  0  0  0           0  0  0
    0.0417    2.0208    0.0000 C   0  0  0  0  0  0           0  0  0
    0.7625    2.4333    0.0000 C   0  0  0  0  0  0           0  0  0
   -0.6625    2.4208    0.0000 C   0  0  0  0  0  0           0  0  0
    1.2542   -0.3000    0.0000 C   0  0  0  0  0  0           0  0  0
    1.5000    0.9583    0.0000 O   0  0  0  0  0  0           0  0  0
   -1.0458   -2.2167    0.0000 C   0  0  0  0  0  0           0  0  0
   -0.2208   -1.4000    0.0000 O   0  0  0  0  0  0           0  0  0
   -1.8625   -1.3875    0.0000 O   0  0  0  0  0  0           0  0  0
    0.7625    3.2583    0.0000 C   0  0  0  0  0  0           0  0  0
   -0.6625    3.2458    0.0000 C   0  0  0  0  0  0           0  0  0
    0.0417    3.6708    0.0000 C   0  0  0  0  0  0           0  0  0
    0.4542   -0.9042    0.0000 C   0  0  0  0  0  0           0  0  0
    1.2417   -1.1167    0.0000 C   0  0  0  0  0  0           0  0  0
    1.2375   -2.7667    0.0000 C   0  0  0  0  0  0           0  0  0
   -1.3833    3.6500    0.0000 Cl  0  0  0  0  0  0           0  0  0
    1.4792    3.6708    0.0000 Cl  0  0  0  0  0  0           0  0  0
    1.2375   -3.6000    0.0000 Br  0  0  0  0  0  0           0  0  0
    1.9542   -1.5292    0.0000 C   0  0  0  0  0  0           0  0  0
    0.5250   -1.5250    0.0000 C   0  0  0  0  0  0           0  0  0
    1.9542   -2.3542    0.0000 C   0  0  0  0  0  0           0  0  0
    0.5167   -2.3500    0.0000 C   0  0  0  0  0  0           0  0  0
   -2.4750   -2.2042    0.0000 O   0  0  0  0  0  0           0  0  0
   -1.7625   -2.6167    0.0000 C   0  0  0  0  0  0           0  0  0
  2  1  1  0     0  0
  3  2  1  0     0  0
  4  1  1  0     0  0
  5  6  1  0     0  0
  6  1  1  0     0  0
  7  4  1  0     0  0
  8  2  2  0     0  0
  9  4  2  0     0  0
 10  3  1  0     0  0
 11 10  2  0     0  0
 12 10  1  0     0  0
  6 13  1  1     0  0
 14  5  2  0     0  0
 15  7  1  0     0  0
 16  7  2  0     0  0
 17  7  2  0     0  0
 18 11  1  0     0  0
 19 12  2  0     0  0
 20 19  1  0     0  0
  6 21  1  6     0  0
 22 13  1  0     0  0
 23 30  2  0     0  0
 24 19  1  0     0  0
 25 18  1  0     0  0
 26 23  1  0     0  0
 27 22  1  0     0  0
 28 22  2  0     0  0
 29 27  2  0     0  0
 30 28  1  0     0  0
 31 32  1  0     0  0
 32 15  1  0     0  0
  3  5  1  0     0  0
  8  9  1  0     0  0
 29 23  1  0     0  0
 18 20  2  0     0  0
M  END