
          11280715432D 1   1.00000     0.00000     0

 23 25  0     1  0            999 V2000
   -1.2458   -0.9792    0.0000 C   0  0  0  0  0  0           0  0  0
   -0.4125   -0.9792    0.0000 N   0  0  0  0  0  0           0  0  0
   -1.7250   -1.6417    0.0000 N   0  0  0  0  0  0           0  0  0
   -1.4875   -0.1917    0.0000 N   0  0  0  0  0  0           0  0  0
   -0.1500   -0.1917    0.0000 C   0  0  0  0  0  0           0  0  0
   -2.5500   -1.5542    0.0000 C   0  0  0  0  0  0           0  0  0
   -0.8208    0.2958    0.0000 C   0  0  0  0  0  0           0  0  0
    0.6875    0.9708    0.0000 C   0  0  0  0  0  0           0  0  0
    1.4500    1.3083    0.0000 C   0  0  0  0  0  0           0  0  0
    0.6000    0.1458    0.0000 C   0  0  0  0  0  0           0  0  0
   -3.0458   -2.2292    0.0000 O   0  0  0  0  0  0           0  0  0
    0.0250    1.4583    0.0000 C   0  0  0  0  0  0           0  0  0
    1.5375    2.1458    0.0000 O   0  0  0  0  0  0           0  0  0
   -0.7333    1.1208    0.0000 C   0  0  0  0  0  0           0  0  0
    2.1250    0.8208    0.0000 C   0  0  0  0  0  0           0  0  0
   -2.8875   -0.8042    0.0000 C   0  0  1  0  0  0           0  0  0
   -3.7083   -0.7167    0.0000 N   0  0  0  0  0  0           0  0  0
    2.8875    1.1708    0.0000 C   0  0  0  0  0  0           0  0  0
    2.0417    0.0000    0.0000 C   0  0  0  0  0  0           0  0  0
   -2.4000   -0.1292    0.0000 C   0  0  0  0  0  0           0  0  0
    2.7125   -0.4792    0.0000 C   0  0  0  0  0  0           0  0  0
    3.5542    0.6833    0.0000 C   0  0  0  0  0  0           0  0  0
    3.4792   -0.1417    0.0000 C   0  0  0  0  0  0           0  0  0
  2  1  2  0     0  0
  3  1  1  0     0  0
  4  1  1  0     0  0
  5  2  1  0     0  0
  6  3  1  0     0  0
  7  4  1  0     0  0
  8 10  2  0     0  0
  9  8  1  0     0  0
 10  5  1  0     0  0
 11  6  2  0     0  0
 12 14  2  0     0  0
 13  9  2  0     0  0
 14  7  1  0     0  0
 15  9  1  0     0  0
 16  6  1  0     0  0
 17 16  1  0     0  0
 18 15  1  0     0  0
 19 15  2  0     0  0
 16 20  1  1     0  0
 21 19  1  0     0  0
 22 18  2  0     0  0
 23 21  2  0     0  0
  7  5  2  0     0  0
 12  8  1  0     0  0
 23 22  1  0     0  0
M  END