
          11280715452D 1   1.00000     0.00000     0

 34 37  0     1  0            999 V2000
   -0.1375    0.0583    0.0000 N   0  0  3  0  0  0           0  0  0
   -0.3625    0.7958    0.0000 C   0  0  0  0  0  0           0  0  0
    0.2375    1.2583    0.0000 N   0  0  3  0  0  0           0  0  0
   -0.7458   -0.4042    0.0000 C   0  0  0  0  0  0           0  0  0
    0.8417    0.7958    0.0000 C   0  0  0  0  0  0           0  0  0
    0.6167    0.0583    0.0000 C   0  0  1  0  0  0           0  0  0
   -1.1125    0.7958    0.0000 N   0  0  0  0  0  0           0  0  0
   -0.7458   -1.1792    0.0000 S   0  0  3  0  0  0           0  0  0
   -1.3458    0.0583    0.0000 C   0  0  0  0  0  0           0  0  0
    0.2375    2.0333    0.0000 C   0  0  0  0  0  0           0  0  0
    0.8875    2.4208    0.0000 C   0  0  0  0  0  0           0  0  0
   -0.4000    2.4208    0.0000 C   0  0  0  0  0  0           0  0  0
    1.3250   -0.1417    0.0000 C   0  0  0  0  0  0           0  0  0
    1.5542    1.0333    0.0000 O   0  0  0  0  0  0           0  0  0
    0.0000   -1.1792    0.0000 O   0  0  0  0  0  0           0  0  0
   -1.4958   -1.1792    0.0000 O   0  0  0  0  0  0           0  0  0
    0.8875    3.1958    0.0000 C   0  0  0  0  0  0           0  0  0
   -0.4000    3.1958    0.0000 C   0  0  0  0  0  0           0  0  0
    0.2375    3.5833    0.0000 C   0  0  0  0  0  0           0  0  0
   -0.7458   -1.9542    0.0000 C   0  0  0  0  0  0           0  0  0
    0.6042   -0.7292    0.0000 C   0  0  0  0  0  0           0  0  0
    1.3250   -0.9292    0.0000 C   0  0  0  0  0  0           0  0  0
    1.3167   -2.4792    0.0000 C   0  0  0  0  0  0           0  0  0
   -1.0583    3.5833    0.0000 Cl  0  0  0  0  0  0           0  0  0
    1.5375    3.5833    0.0000 Cl  0  0  0  0  0  0           0  0  0
    1.3042   -3.2542    0.0000 Br  0  0  0  0  0  0           0  0  0
    1.9625   -1.3042    0.0000 C   0  0  0  0  0  0           0  0  0
    0.6750   -1.3042    0.0000 C   0  0  0  0  0  0           0  0  0
    1.9625   -2.0917    0.0000 C   0  0  0  0  0  0           0  0  0
    0.6750   -2.0792    0.0000 C   0  0  0  0  0  0           0  0  0
   -1.4250   -2.3417    0.0000 C   0  0  0  0  0  0           0  0  0
   -2.7833   -2.3292    0.0000 O   0  0  0  0  0  0           0  0  0
   -2.1000   -1.9417    0.0000 C   0  0  0  0  0  0           0  0  0
   -3.4458   -1.9292    0.0000 C   0  0  0  0  0  0           0  0  0
  2  1  1  0     0  0
  3  2  1  0     0  0
  4  1  1  0     0  0
  5  6  1  0     0  0
  6  1  1  0     0  0
  7  2  2  0     0  0
  8  4  1  0     0  0
  9  4  2  0     0  0
 10  3  1  0     0  0
 11 10  2  0     0  0
 12 10  1  0     0  0
  6 13  1  1     0  0
 14  5  2  0     0  0
 15  8  2  0     0  0
 16  8  2  0     0  0
 17 11  1  0     0  0
 18 12  2  0     0  0
 19 18  1  0     0  0
 20  8  1  0     0  0
  6 21  1  6     0  0
 22 13  1  0     0  0
 23 30  2  0     0  0
 24 18  1  0     0  0
 25 17  1  0     0  0
 26 23  1  0     0  0
 27 22  1  0     0  0
 28 22  2  0     0  0
 29 27  2  0     0  0
 30 28  1  0     0  0
 31 20  1  0     0  0
 32 33  1  0     0  0
 33 31  1  0     0  0
 34 32  1  0     0  0
  3  5  1  0     0  0
  7  9  1  0     0  0
 29 23  1  0     0  0
 17 19  2  0     0  0
M  END