
  SciTegic06051313552D

 32 35  0  0  0  0            999 V2000
   13.3502  -14.8951    0.0000 C   0  0
   13.3490  -15.7147    0.0000 C   0  0
   14.0571  -16.1236    0.0000 C   0  0
   14.0553  -14.4863    0.0000 C   0  0
   15.5477  -14.6355    0.0000 C   0  0
   14.7639  -14.8915    0.0000 C   0  0
   14.7664  -15.7168    0.0000 C   0  0
   15.5528  -15.9681    0.0000 N   0  0
   16.0335  -15.2972    0.0000 N   0  0
   15.8097  -16.7438    0.0000 C   0  0
   15.3914  -17.4449    0.0000 C   0  0
   14.5766  -17.4303    0.0000 C   0  0
   14.1577  -18.1311    0.0000 C   0  0
   14.5558  -18.8457    0.0000 C   0  0
   15.3771  -18.8553    0.0000 C   0  0
   15.7924  -18.1539    0.0000 C   0  0
   15.7778  -19.5675    0.0000 C   0  0
   15.3612  -20.2706    0.0000 N   0  0
   15.7618  -20.9829    0.0000 C   0  0
   15.3453  -21.6859    0.0000 O   0  0
   16.5790  -20.9920    0.0000 C   0  0
   15.9693  -13.9355    0.0000 N   0  0
   16.7864  -13.9506    0.0000 S   0  0
   17.2730  -14.6071    0.0000 C   0  0
   16.7590  -13.1269    0.0000 O   0  0
   17.5678  -13.7075    0.0000 O   0  0
   17.0280  -15.3887    0.0000 C   0  0
   17.6942  -15.8634    0.0000 C   0  0
   18.3510  -15.3751    0.0000 C   0  0
   18.0883  -14.6003    0.0000 S   0  0
   19.1311  -15.6184    0.0000 Cl  0  0
   14.0528  -13.6691    0.0000 F   0  0
  1  2  2  0
  2  3  1  0
  3  7  2  0
  6  4  2  0
  4  1  1  0
  6  7  1  0
  5  6  1  0
  7  8  1  0
  8  9  1  0
  9  5  2  0
  8 10  1  0
 10 11  1  0
 11 12  2  0
 12 13  1  0
 13 14  2  0
 14 15  1  0
 15 16  2  0
 16 11  1  0
 15 17  1  0
 17 18  1  0
 18 19  1  0
 19 20  2  0
 19 21  1  0
  5 22  1  0
 22 23  1  0
 23 24  1  0
 23 25  2  0
 23 26  2  0
 27 28  1  0
 24 27  2  0
 28 29  2  0
 29 30  1  0
 30 24  1  0
 29 31  1  0
  4 32  1  0
M  END