
          11280714452D 1   1.00000     0.00000     0

 36 39  0     0  0            999 V2000
   -2.4125   -2.6292    0.0000 C   0  0  0  0  0  0           0  0  0
   -1.6083   -2.4542    0.0000 N   0  0  0  0  0  0           0  0  0
   -2.2875   -1.3042    0.0000 N   0  0  0  0  0  0           0  0  0
   -2.8333   -1.9250    0.0000 C   0  0  0  0  0  0           0  0  0
   -2.7375   -3.3917    0.0000 C   0  0  0  0  0  0           0  0  0
   -1.5333   -1.6292    0.0000 C   0  0  0  0  0  0           0  0  0
   -2.3208   -4.1042    0.0000 S   0  0  0  0  0  0           0  0  0
    9.1042   -0.7542    0.0000 C   0  0  0  0  0  0           0  0  0
   -3.5458   -3.5750    0.0000 C   0  0  0  0  0  0           0  0  0
    8.9375   -1.5667    0.0000 C   0  0  0  0  0  0           0  0  0
   -2.8625   -4.7250    0.0000 C   0  0  0  0  0  0           0  0  0
    8.4792   -0.2125    0.0000 C   0  0  0  0  0  0           0  0  0
   -3.6208   -4.3917    0.0000 C   0  0  0  0  0  0           0  0  0
    8.1542   -1.8292    0.0000 C   0  0  0  0  0  0           0  0  0
    2.7000   -0.0625    0.0000 O   0  0  0  0  0  0           0  0  0
   -0.8208   -1.2125    0.0000 C   0  0  0  0  0  0           0  0  0
    1.9792   -0.4750    0.0000 C   0  0  0  0  0  0           0  0  0
    7.7000   -0.4792    0.0000 C   0  0  0  0  0  0           0  0  0
    4.1292   -0.0625    0.0000 C   0  0  3  0  0  0           0  0  0
    0.5542   -1.3000    0.0000 C   0  0  0  0  0  0           0  0  0
    3.4125   -0.4750    0.0000 C   0  0  0  0  0  0           0  0  0
    7.5417   -1.2792    0.0000 C   0  0  0  0  0  0           0  0  0
    9.8792   -0.4917    0.0000 O   0  0  0  0  0  0           0  0  0
    5.5542   -0.0625    0.0000 N   0  0  0  0  0  0           0  0  0
   -0.1000   -1.6167    0.0000 C   0  0  0  0  0  0           0  0  0
    1.9792   -1.3042    0.0000 C   0  0  0  0  0  0           0  0  0
    1.2667   -0.0625    0.0000 C   0  0  0  0  0  0           0  0  0
    9.5542   -2.1125    0.0000 O   0  0  0  0  0  0           0  0  0
    1.2667   -1.7125    0.0000 C   0  0  0  0  0  0           0  0  0
    0.5542   -0.4667    0.0000 C   0  0  0  0  0  0           0  0  0
    4.1292    0.7625    0.0000 O   0  0  0  0  0  0           0  0  0
    4.8417   -0.4750    0.0000 C   0  0  0  0  0  0           0  0  0
    6.2667   -0.4750    0.0000 C   0  0  0  0  0  0           0  0  0
    6.9875   -0.0667    0.0000 C   0  0  0  0  0  0           0  0  0
   10.5042   -1.0375    0.0000 C   0  0  0  0  0  0           0  0  0
    9.3917   -2.9250    0.0000 C   0  0  0  0  0  0           0  0  0
  2  1  1  0     0  0
  3  4  1  0     0  0
  4  1  2  0     0  0
  5  1  1  0     0  0
  6  2  2  0     0  0
  7  5  1  0     0  0
  8 12  1  0     0  0
  9  5  2  0     0  0
 10 14  1  0     0  0
 11  7  1  0     0  0
 12 18  2  0     0  0
 13  9  1  0     0  0
 14 22  2  0     0  0
 15 17  1  0     0  0
 16  6  1  0     0  0
 17 27  2  0     0  0
 18 34  1  0     0  0
 19 21  1  0     0  0
 20 25  1  0     0  0
 21 15  1  0     0  0
 22 18  1  0     0  0
 23  8  1  0     0  0
 24 32  1  0     0  0
 25 16  1  0     0  0
 26 29  2  0     0  0
 27 30  1  0     0  0
 28 10  1  0     0  0
 29 20  1  0     0  0
 30 20  2  0     0  0
 31 19  1  0     0  0
 32 19  1  0     0  0
 33 24  1  0     0  0
 34 33  1  0     0  0
 35 23  1  0     0  0
 36 28  1  0     0  0
  6  3  1  0     0  0
 13 11  2  0     0  0
 26 17  1  0     0  0
 10  8  2  0     0  0
M  END