
  SciTegic05161214222D

 64 66  0  0  0  0            999 V2000
   13.8169  -21.2546    0.0000 C   0  0
   14.5316  -20.8426    0.0000 C   0  0
    9.5375  -20.4375    0.0000 C   0  0
    9.5375  -21.2625    0.0000 C   0  0
   10.2495  -21.6708    0.0000 O   0  0
   10.9615  -21.2625    0.0000 C   0  0
   10.9615  -20.4375    0.0000 C   0  0
   10.2495  -20.0208    0.0000 C   0  0
    8.8198  -20.0323    0.0000 S   0  0
    8.4115  -20.7491    0.0000 O   0  0
    9.2365  -20.7443    0.0000 O   0  0
    5.9527  -15.0958    0.0000 C   0  0
    5.9516  -15.9232    0.0000 C   0  0
    6.6664  -16.3360    0.0000 C   0  0
    6.6646  -14.6830    0.0000 C   0  0
    7.3800  -15.0922    0.0000 C   0  0
    7.3807  -15.9190    0.0000 C   0  0
    8.0960  -16.3300    0.0000 N   0  0
    8.8111  -15.9152    0.0000 C   0  0
    8.8063  -15.0852    0.0000 C   0  0
    8.0904  -14.6780    0.0000 C   0  0
    9.5271  -16.3249    0.0000 C   0  0
    8.0860  -13.8530    0.0000 C   0  0
    6.6683  -17.1610    0.0000 O   0  0
    7.3837  -17.5719    0.0000 C   0  0
    7.3856  -18.3969    0.0000 C   0  0
    6.6695  -18.8067    0.0000 C   0  0
    6.6711  -19.6309    0.0000 C   0  0
    7.3871  -20.0426    0.0000 C   0  0
    8.1029  -19.6240    0.0000 C   0  0
    8.0979  -18.8011    0.0000 C   0  0
    5.9555  -18.3935    0.0000 Cl  0  0
    8.8095  -18.3838    0.0000 Cl  0  0
    9.5319  -19.6156    0.0000 N   0  0
   10.9608  -19.6073    0.0000 C   0  0
   11.6765  -20.0176    0.0000 N   0  0
   10.9582  -18.7823    0.0000 O   0  0
   11.6754  -20.8425    0.0000 C   0  0
   12.3871  -21.2528    0.0000 C   0  0
   13.1027  -20.8416    0.0000 N   0  3
   13.1021  -20.0156    0.0000 C   0  0
   12.3859  -19.6008    0.0000 C   0  0
   13.6833  -20.2500    0.0000 C   0  0
   15.2458  -21.2556    0.0000 C   0  0
   15.9606  -20.8436    0.0000 C   0  0
   16.6748  -21.2566    0.0000 C   0  0
   17.3895  -20.8446    0.0000 N   0  3
   18.1037  -21.2576    0.0000 C   0  0
   17.3901  -20.0196    0.0000 C   0  0
   17.6025  -21.6416    0.0000 C   0  0
   12.1284  -17.8051    0.0000 F   0  0
   12.8428  -17.3926    0.0000 C   0  0
   13.5573  -17.8051    0.0000 F   0  0
   12.8367  -18.2134    0.0000 F   0  0
   12.8459  -16.5676    0.0000 C   0  0
   13.5619  -16.1578    0.0000 O   0  5
   12.1330  -16.1524    0.0000 O   0  0
   15.5972  -18.0551    0.0000 F   0  0
   16.3116  -17.6426    0.0000 C   0  0
   17.0261  -18.0551    0.0000 F   0  0
   16.3055  -18.4634    0.0000 F   0  0
   16.3147  -16.8176    0.0000 C   0  0
   17.0307  -16.4078    0.0000 O   0  5
   15.6018  -16.4024    0.0000 O   0  0
 13 14  1  0
 25 26  1  0
 14 17  2  0
 26 27  2  0
  6  7  1  0
 27 28  1  0
 16 15  2  0
 28 29  2  0
 15 12  1  0
 29 30  1  0
  7  8  1  0
 30 31  2  0
 31 26  1  0
 10  9  2  0
 27 32  1  0
 16 17  1  0
 31 33  1  0
 30  9  1  0
  9 11  2  0
  9 34  1  0
 34  8  1  0
 17 18  1  0
  8 35  1  0
 35 36  1  0
 18 19  2  0
 35 37  2  0
 36 38  1  0
  1  2  1  0
 19 20  1  0
  3  4  1  0
 20 21  2  0
 21 16  1  0
 36 42  1  0
 38 39  1  0
 39 40  1  0
 40 41  1  0
 41 42  1  0
 40  1  1  0
  3  8  1  0
 40 43  1  0
 19 22  1  0
  2 44  1  0
  4  5  1  0
 44 45  1  0
 21 23  1  0
 45 46  1  0
 12 13  2  0
 46 47  1  0
 14 24  1  0
 47 48  1  0
  5  6  1  0
 47 49  1  0
 24 25  1  0
 47 50  1  0
 51 52  1  0
 52 54  1  0
 52 55  1  0
 52 53  1  0
 55 56  1  0
 55 57  2  0
 58 59  1  0
 59 61  1  0
 59 62  1  0
 59 60  1  0
 62 63  1  0
 62 64  2  0
M  CHG  4  40   1  47   1  56  -1  63  -1
M  END