
          11280715132D 1   1.00000     0.00000     0

 36 38  0     1  0            999 V2000
    5.2417   -2.9125    0.0000 C   0  0  1  0  0  0           0  0  0
    5.9167   -3.3125    0.0000 C   0  0  1  0  0  0           0  0  0
    4.5500   -3.3042    0.0000 C   0  0  2  0  0  0           0  0  0
    5.9167   -4.1042    0.0000 C   0  0  2  0  0  0           0  0  0
    4.5417   -4.0875    0.0000 C   0  0  1  0  0  0           0  0  0
    5.2292   -4.4917    0.0000 C   0  0  2  0  0  0           0  0  0
    5.2417   -2.1167    0.0000 C   0  0  0  0  0  0           0  0  0
    6.6125   -2.9167    0.0000 O   0  0  0  0  0  0           0  0  0
    6.6250   -2.1250    0.0000 C   0  0  2  0  0  0           0  0  0
    5.9167   -5.6792    0.0000 C   0  0  0  0  0  0           0  0  0
    3.8667   -4.4917    0.0000 C   0  0  3  0  0  0           0  0  0
    5.9375   -1.7292    0.0000 C   0  0  0  0  0  0           0  0  0
    5.2292   -5.2875    0.0000 O   0  0  0  0  0  0           0  0  0
    6.6042   -4.5000    0.0000 O   0  0  0  0  0  0           0  0  0
    3.8667   -2.9125    0.0000 C   0  0  2  0  0  0           0  0  0
    7.2917   -4.1042    0.0000 C   0  0  0  0  0  0           0  0  0
    4.5625   -1.7125    0.0000 O   0  0  0  0  0  0           0  0  0
    5.2375   -3.7042    0.0000 O   0  0  0  0  0  0           0  0  0
    7.4167   -2.1250    0.0000 C   0  0  0  0  0  0           0  0  0
    5.9042   -6.4750    0.0000 O   0  0  0  0  0  0           0  0  0
    3.1917   -4.1000    0.0000 C   0  0  0  0  0  0           0  0  0
    7.3000   -3.3125    0.0000 O   0  0  0  0  0  0           0  0  0
    3.1917   -3.3042    0.0000 C   0  0  0  0  0  0           0  0  0
    5.9167   -2.5167    0.0000 C   0  0  0  0  0  0           0  0  0
    6.7042   -5.6792    0.0000 N   0  0  0  0  0  0           0  0  0
    4.5500   -2.5167    0.0000 C   0  0  0  0  0  0           0  0  0
    7.8000   -1.4417    0.0000 C   0  0  0  0  0  0           0  0  0
    3.8667   -2.1167    0.0000 O   0  0  0  0  0  0           0  0  0
    8.6750   -6.3667    0.0000 N   0  0  0  0  0  0           0  0  0
    6.6125   -1.3292    0.0000 C   0  0  0  0  0  0           0  0  0
    3.4625   -5.1792    0.0000 C   0  0  0  0  0  0           0  0  0
    4.1167   -5.2417    0.0000 C   0  0  0  0  0  0           0  0  0
    7.9792   -4.5000    0.0000 C   0  0  0  0  0  0           0  0  0
    7.5000   -5.6792    0.0000 C   0  0  0  0  0  0           0  0  0
    7.8792   -6.3667    0.0000 C   0  0  0  0  0  0           0  0  0
    4.5542   -4.8667    0.0000 H   0  0  0  0  0  0           0  0  0
  2  1  1  0     0  0
  3  1  1  0     0  0
  4  2  1  0     0  0
  5  3  1  0     0  0
  6  5  1  0     0  0
  7  1  1  0     0  0
  8  2  1  0     0  0
  9 12  1  0     0  0
 10 13  1  0     0  0
 11  5  1  0     0  0
 12  7  1  0     0  0
  6 13  1  1     0  0
  4 14  1  1     0  0
 15  3  1  0     0  0
 16 14  1  0     0  0
 17  7  2  0     0  0
  1 18  1  6     0  0
  9 19  1  6     0  0
 20 10  2  0     0  0
 21 23  1  0     0  0
 22 16  2  0     0  0
 23 15  1  0     0  0
  2 24  1  1     0  0
 25 10  1  0     0  0
  3 26  1  1     0  0
 27 19  2  0     0  0
 15 28  1  6     0  0
 29 35  1  0     0  0
  9 30  1  1     0  0
 31 11  1  0     0  0
 32 11  1  0     0  0
 33 16  1  0     0  0
 34 25  1  0     0  0
 35 34  1  0     0  0
  5 36  1  6     0  0
  9  8  1  0     0  0
  4  6  1  0     0  0
 21 11  1  0     0  0
M  END