
  SciTegic12231509382D

 28 31  0  0  0  0            999 V2000
  -12.6107  -20.8018    0.0000 C   0  0
  -13.3252  -21.2143    0.0000 C   0  0
  -13.3252  -22.0393    0.0000 N   0  0
  -12.6107  -22.4518    0.0000 C   0  0
  -11.8962  -22.0393    0.0000 C   0  0
  -11.8962  -21.2143    0.0000 C   0  0
  -11.1817  -20.8018    0.0000 C   0  0
  -10.4673  -21.2143    0.0000 N   0  0
  -10.4673  -22.0393    0.0000 C   0  0
  -11.1818  -22.4518    0.0000 N   0  0
  -11.1818  -23.2768    0.0000 C   0  0
  -10.4673  -23.6893    0.0000 C   0  0
   -9.7528  -23.2768    0.0000 C   0  0
   -9.7528  -22.4518    0.0000 C   0  0
   -9.0383  -22.0393    0.0000 C   0  0
   -8.3238  -22.4518    0.0000 N   0  0
   -9.0383  -21.2143    0.0000 O   0  0
   -7.6094  -22.0393    0.0000 C   0  0
   -6.8949  -22.4518    0.0000 C   0  0
   -6.1804  -22.0393    0.0000 C   0  0
   -6.1804  -21.2142    0.0000 C   0  0
   -6.8949  -20.8017    0.0000 C   0  0
   -7.6094  -21.2142    0.0000 C   0  0
   -6.7234  -19.9948    0.0000 N   0  0
   -5.9029  -19.9086    0.0000 C   0  0
   -5.5674  -20.6622    0.0000 C   0  0
   -4.8529  -20.2497    0.0000 C   0  0
   -4.8529  -21.0747    0.0000 C   0  0
  1  2  1  0
  1  6  2  0
  2  3  2  0
  3  4  1  0
  4  5  2  0
  5  6  1  0
  6  7  1  0
  7  8  1  0
  8  9  1  0
  9 10  1  0
  9 14  2  0
 10 11  2  0
 11 12  1  0
 12 13  2  0
 13 14  1  0
 14 15  1  0
 15 16  1  0
 15 17  2  0
 16 18  1  0
 18 19  1  0
 18 23  2  0
 19 20  2  0
 20 21  1  0
 22 23  1  0
 21 26  1  0
 21 22  2  0
 22 24  1  0
 24 25  1  0
 25 26  1  0
 26 27  1  0
 26 28  1  0
M  END