
  SciTegic09081514192D

 56 60  0  0  0  0            999 V2000
  -11.6906   12.0270    0.0000 N   0  0
  -10.3879   12.7723    0.0000 C   0  0  2  0  0  0
   -8.0495   12.6171    0.0000 O   0  0
   -9.0898   12.0190    0.0000 C   0  0
  -10.3856   14.2731    0.0000 C   0  0
  -13.0386   14.4077    0.0000 C   0  0
  -11.6837   15.0264    0.0000 C   0  0
  -14.0207   15.5058    0.0000 N   0  0
  -11.8212   16.5009    0.0000 C   0  0
  -13.2849   16.8053    0.0000 C   0  0
  -13.7711   18.2286    0.0000 C   0  0
  -12.7541   19.3579    0.0000 C   0  0
  -11.2904   19.0535    0.0000 C   0  0
  -10.8079   17.6124    0.0000 C   0  0
   -9.0922   10.5182    0.0000 N   0  0
   -7.7941    9.7650    0.0000 C   0  0  1  0  0  0
   -8.8367    7.6661    0.0000 O   0  0
   -7.7964    8.2641    0.0000 C   0  0
   -6.4914   10.5103    0.0000 C   0  0
   -3.8910   10.4986    0.0000 C   0  0
   -5.1941    9.7556    0.0000 C   0  0
   -5.2020    8.2555    0.0000 C   0  0
   -3.9070    7.4986    0.0000 C   0  0
   -2.6040    8.2417    0.0000 C   0  0
   -2.5960    9.7417    0.0000 C   0  0
   -9.1012    1.5071    0.0000 N   0  0
  -10.4008    0.7565    0.0000 C   0  0
  -11.4400    1.3566    0.0000 N   0  0
  -10.4014   -0.4435    0.0000 N   0  0
   -6.4983    7.5109    0.0000 N   0  0
   -6.5006    6.0101    0.0000 C   0  0  2  0  0  0
   -4.1622    5.8549    0.0000 O   0  0
   -5.2025    5.2568    0.0000 C   0  0
   -7.8002    5.2594    0.0000 C   0  0
   -7.8009    3.7586    0.0000 C   0  0
   -9.1005    3.0079    0.0000 C   0  0
   -5.2049    3.7560    0.0000 N   0  0
   -3.9067    3.0027    0.0000 C   0  0  1  0  0  0
  -12.9879   12.7817    0.0000 C   0  0
  -14.0295   12.1858    0.0000 O   0  0
  -12.9843   13.7817    0.0000 C   0  0
   -1.5680    7.6362    0.0000 I   0  0
   -2.6040    3.7480    0.0000 C   0  0
   -2.5997    4.9480    0.0000 N   0  0
   -1.5668    3.1446    0.0000 O   0  0
   -3.9091    1.5019    0.0000 C   0  0
   -2.6111    0.7486    0.0000 C   0  0
   -2.6111   -0.7486    0.0000 C   0  0
   -1.2964   -1.4973    0.0000 C   0  0
   -1.2964    1.4973    0.0000 C   0  0
    0.0000    0.7486    0.0000 C   0  0
    0.0000   -0.7486    0.0000 C   0  0
    1.2964   -1.4973    0.0000 C   0  0
    2.5929   -0.7486    0.0000 C   0  0
    2.5929    0.7486    0.0000 C   0  0
    1.2964    1.4973    0.0000 C   0  0
  4 15  1  0
 18 30  1  0
 33 37  1  0
  1  2  1  0
  2  4  1  0
  4  3  2  0
  2  5  1  1
  5  7  1  0
  6  7  2  0
  7  9  1  0
  8  6  1  0
 10  8  1  0
  9 10  2  0
 10 11  1  0
 11 12  2  0
 12 13  1  0
 13 14  2  0
 14  9  1  0
 15 16  1  0
 16 18  1  0
 18 17  2  0
 16 19  1  6
 19 21  1  0
 20 21  2  0
 21 22  1  0
 22 23  2  0
 23 24  1  0
 24 25  2  0
 25 20  1  0
 26 27  1  0
 27 28  1  0
 27 29  2  0
 30 31  1  0
 31 33  1  0
 33 32  2  0
 31 34  1  6
 34 35  1  0
 35 36  1  0
 36 26  1  0
 37 38  1  0
  1 39  1  0
 39 40  2  0
 39 41  1  0
 24 42  1  0
 38 43  1  0
 43 44  1  0
 43 45  2  0
 38 46  1  1
 46 47  1  0
 47 48  2  0
 48 49  1  0
 49 52  2  0
 51 50  2  0
 50 47  1  0
 51 52  1  0
 52 53  1  0
 53 54  2  0
 54 55  1  0
 55 56  2  0
 56 51  1  0
M  END