
          11280714572D 1   1.00000     0.00000     0

 53 58  0     0  0            999 V2000
   12.0667   -0.4292    0.0000 C   0  0  0  0  0  0           0  0  0
    9.9417   -0.9042    0.0000 C   0  0  0  0  0  0           0  0  0
   10.6417   -0.4750    0.0000 C   0  0  3  0  0  0           0  0  0
   12.0542    0.3958    0.0000 O   0  0  0  0  0  0           0  0  0
    9.9667   -1.7250    0.0000 C   0  0  0  0  0  0           0  0  0
   11.3667   -0.8625    0.0000 C   0  0  3  0  0  0           0  0  0
   11.3292    0.7833    0.0000 C   0  0  0  0  0  0           0  0  0
   10.6250    0.3458    0.0000 C   0  0  0  0  0  0           0  0  0
   12.7917   -0.8167    0.0000 C   0  0  0  0  0  0           0  0  0
    4.2500   -1.0000    0.0000 N   0  0  0  0  0  0           0  0  0
    4.9667   -0.5792    0.0000 C   0  0  0  0  0  0           0  0  0
   11.4000   -1.6792    0.0000 C   0  0  0  0  0  0           0  0  0
    9.2750   -2.1625    0.0000 C   0  0  0  0  0  0           0  0  0
    4.2542   -1.8250    0.0000 C   0  0  0  0  0  0           0  0  0
   10.4042   -2.4250    0.0000 C   0  0  0  0  0  0           0  0  0
    5.6792   -0.1667    0.0000 N   0  0  0  0  0  0           0  0  0
    7.8417   -2.2042    0.0000 C   0  0  0  0  0  0           0  0  0
    8.5417   -1.7667    0.0000 C   0  0  0  0  0  0           0  0  0
    9.2167   -0.5125    0.0000 C   0  0  0  0  0  0           0  0  0
   11.3042    1.6000    0.0000 C   0  0  0  0  0  0           0  0  0
   12.8125   -1.6375    0.0000 C   0  0  0  0  0  0           0  0  0
   12.1042   -2.0750    0.0000 C   0  0  0  0  0  0           0  0  0
   -2.8958   -1.8292    0.0000 N   0  0  3  0  0  0           0  0  0
    9.9042    0.7375    0.0000 C   0  0  0  0  0  0           0  0  0
    8.5167   -0.9417    0.0000 C   0  0  0  0  0  0           0  0  0
   11.2167   -2.3917    0.0000 O   0  0  0  0  0  0           0  0  0
    7.8667   -3.0292    0.0000 O   0  0  0  0  0  0           0  0  0
   -2.1833   -2.2417    0.0000 C   0  0  0  0  0  0           0  0  0
   13.5500   -2.0292    0.0000 O   0  0  0  0  0  0           0  0  0
    3.5375   -2.2375    0.0000 N   0  0  0  0  0  0           0  0  0
    4.9667   -2.2292    0.0000 N   0  0  0  0  0  0           0  0  0
   -1.4625   -1.8292    0.0000 C   0  0  0  0  0  0           0  0  0
    7.1125   -1.8125    0.0000 N   0  0  0  0  0  0           0  0  0
   10.5792    1.9833    0.0000 C   0  0  0  0  0  0           0  0  0
   10.0125   -3.1500    0.0000 O   0  0  0  0  0  0           0  0  0
    9.8792    1.5583    0.0000 C   0  0  0  0  0  0           0  0  0
   -0.7500   -2.2417    0.0000 C   0  0  0  0  0  0           0  0  0
   -0.0333   -1.8292    0.0000 C   0  0  0  0  0  0           0  0  0
   10.5667    2.8125    0.0000 O   0  0  0  0  0  0           0  0  0
    2.1042   -2.2375    0.0000 C   0  0  0  0  0  0           0  0  0
    0.6792   -2.2417    0.0000 O   0  0  0  0  0  0           0  0  0
   -3.6083   -2.2375    0.0000 C   0  0  0  0  0  0           0  0  0
   -2.8958   -1.0000    0.0000 C   0  0  0  0  0  0           0  0  0
   -0.7500   -0.5917    0.0000 C   0  0  0  0  0  0           0  0  0
    2.8250   -1.8250    0.0000 C   0  0  0  0  0  0           0  0  0
   -1.4625   -1.0042    0.0000 C   0  0  0  0  0  0           0  0  0
    1.3917   -1.8292    0.0000 C   0  0  0  0  0  0           0  0  0
    5.6792   -1.8167    0.0000 C   0  0  0  0  0  0           0  0  0
    6.4000   -2.2292    0.0000 C   0  0  0  0  0  0           0  0  0
   -0.0333   -1.0000    0.0000 C   0  0  0  0  0  0           0  0  0
   -3.6000   -0.5875    0.0000 C   0  0  0  0  0  0           0  0  0
   -4.3208   -1.8167    0.0000 C   0  0  0  0  0  0           0  0  0
   -4.3208   -0.9917    0.0000 C   0  0  0  0  0  0           0  0  0
  2  3  1  0     0  0
  3  6  1  0     0  0
  4  1  1  0     0  0
  5  2  1  0     0  0
  6  1  1  0     0  0
  7  4  1  0     0  0
  8  3  1  0     0  0
  9  1  2  0     0  0
 10 14  1  0     0  0
 11 10  1  0     0  0
 12  6  1  0     0  0
 13  5  2  0     0  0
 14 31  2  0     0  0
 15  5  1  0     0  0
 16 11  3  0     0  0
 17 18  1  0     0  0
 18 25  2  0     0  0
 19  2  2  0     0  0
 20  7  1  0     0  0
 21  9  1  0     0  0
 22 21  1  0     0  0
 23 28  1  0     0  0
 24  8  1  0     0  0
 25 19  1  0     0  0
 26 15  2  0     0  0
 27 17  2  0     0  0
 28 32  1  0     0  0
 29 21  2  0     0  0
 30 14  1  0     0  0
 31 48  1  0     0  0
 32 37  1  0     0  0
 33 17  1  0     0  0
 34 20  2  0     0  0
 35 15  1  0     0  0
 36 24  2  0     0  0
 37 38  2  0     0  0
 38 41  1  0     0  0
 39 34  1  0     0  0
 40 45  1  0     0  0
 41 47  1  0     0  0
 42 23  1  0     0  0
 43 23  1  0     0  0
 44 50  2  0     0  0
 45 30  1  0     0  0
 46 44  1  0     0  0
 47 40  1  0     0  0
 48 49  1  0     0  0
 49 33  1  0     0  0
 50 38  1  0     0  0
 51 43  1  0     0  0
 52 42  1  0     0  0
 53 51  1  0     0  0
 22 12  2  0     0  0
  7  8  2  0     0  0
 36 34  1  0     0  0
 18 13  1  0     0  0
 32 46  2  0     0  0
 53 52  1  0     0  0
M  END