
  SciTegic07291412072D

 53 59  0  0  0  0            999 V2000
   -1.0428   -3.2321    0.0000 N   0  0
   -0.2613   -3.4965    0.0000 C   0  0
   -0.5849   -1.8786    0.0000 C   0  0
    2.4405   -7.6162    0.0000 N   0  0
    1.7870   -6.4522    0.0000 C   0  0
    0.1966   -2.1429    0.0000 N   0  0
    0.3584   -2.9519    0.0000 C   0  0  1  0  0  0
   -1.2046   -2.4232    0.0000 C   0  0  2  0  0  0
    2.5366   -6.7968    0.0000 C   0  0
    4.1315   -7.2453    0.0000 C   0  0
    1.6315   -7.7780    0.0000 C   0  0
    3.0264   -5.3630    0.0000 C   0  0
    3.9697   -6.4363    0.0000 C   0  0  1  0  0  0
    1.2277   -7.0586    0.0000 C   0  0
    3.1882   -6.1719    0.0000 N   0  0
    1.1399   -3.2163    0.0000 C   0  0
    4.9130   -7.5097    0.0000 N   0  0
    1.3017   -4.0253    0.0000 C   0  0
    2.2449   -5.0986    0.0000 C   0  0  1  0  0  0
    1.6252   -5.6432    0.0000 C   0  0
    2.0831   -4.2896    0.0000 N   0  0
   -1.7913   -2.8852    0.0000 C   0  0
    3.0469   -8.1756    0.0000 C   0  0
   -0.7467   -1.0696    0.0000 O   0  0
   -0.0995   -4.3055    0.0000 O   0  0
   -1.9340   -2.1368    0.0000 C   0  0
    5.0748   -8.3186    0.0000 C   0  0
    4.5894   -5.8917    0.0000 C   0  0
    3.5118   -7.7899    0.0000 O   0  0
    3.2077   -4.5581    0.0000 O   0  0
    0.6820   -4.5699    0.0000 O   0  0
    2.8657   -8.9804    0.0000 O   0  0
   -1.6516   -1.8466    0.0000 C   0  0
   -2.6306   -3.2441    0.0000 C   0  0
   -2.7378   -2.4887    0.0000 C   0  0
   -1.8963   -1.2407    0.0000 C   0  0
    5.8563   -8.5830    0.0000 C   0  0
    4.4276   -5.0827    0.0000 C   0  0
    5.5327   -6.9651    0.0000 C   0  0
    1.2105   -8.4874    0.0000 C   0  0
    0.4027   -7.0487    0.0000 C   0  0
    6.0181   -9.3920    0.0000 C   0  0
    6.4760   -8.0384    0.0000 C   0  0
    5.0473   -4.5381    0.0000 C   0  0
    3.6461   -4.8184    0.0000 C   0  0
   -0.0184   -7.7581    0.0000 C   0  0
    0.3855   -8.4775    0.0000 C   0  0
    6.7996   -9.6564    0.0000 C   0  0
    4.8855   -3.7291    0.0000 C   0  0
    3.4843   -4.0094    0.0000 C   0  0
    7.2575   -8.3028    0.0000 C   0  0
    7.4193   -9.1118    0.0000 C   0  0
    4.1040   -3.4648    0.0000 C   0  0
  2  1  1  0
  8  3  1  1
  4  9  1  0
  5 20  1  0
  6  3  1  0
  7  2  1  0
  8  1  1  0
  9  5  2  0
 13 10  1  1
 11 14  2  0
 12 19  1  0
 13 15  1  0
 14  5  1  0
 15 12  1  0
  7 16  1  1
 17 10  1  0
 18 16  1  0
 19 21  1  0
 19 20  1  1
 21 18  1  0
 22  1  1  0
 23  4  1  0
 24  3  2  0
 25  2  2  0
 26  8  1  0
 27 17  1  0
 28 13  1  0
 29 10  2  0
 30 12  2  0
 31 18  2  0
 32 23  2  0
 33 22  1  0
 34 22  1  0
 35 34  1  0
 36 33  1  0
 37 27  1  0
 38 28  1  0
 39 17  1  0
 40 11  1  0
 41 14  1  0
 42 37  2  0
 43 37  1  0
 44 38  2  0
 45 38  1  0
 46 41  2  0
 47 46  1  0
 48 42  1  0
 49 44  1  0
 50 45  2  0
 51 43  2  0
 52 51  1  0
 53 50  1  0
  6  7  1  0
 35 26  1  0
 36 26  1  0
  4 11  1  0
 47 40  2  0
 53 49  2  0
 52 48  2  0
M  END