
  SciTegic05071317042D

 29 32  0  0  0  0            999 V2000
   26.2106   -3.7268    0.0000 C   0  0
   26.2095   -4.5464    0.0000 C   0  0
   26.9175   -4.9554    0.0000 N   0  0
   27.6272   -4.5459    0.0000 C   0  0
   27.6243   -3.7233    0.0000 C   0  0
   26.9157   -3.3180    0.0000 C   0  0
   28.3305   -3.3120    0.0000 C   0  0
   28.3281   -2.4935    0.0000 O   0  0
   28.7486   -1.7928    0.0000 C   0  0
   26.9133   -2.5008    0.0000 C   0  0
   27.6198   -2.0901    0.0000 F   0  0
   26.2044   -2.0943    0.0000 F   0  0
   26.9054   -1.6798    0.0000 F   0  0
   29.0335   -3.7172    0.0000 C   0  0
   29.0301   -4.5294    0.0000 C   0  0
   29.7314   -4.9355    0.0000 C   0  0
   30.4352   -4.5304    0.0000 C   0  0
   28.3520   -1.0783    0.0000 N   0  0
   29.5656   -1.8065    0.0000 O   0  0
   28.7724   -0.3775    0.0000 C   0  0
   27.5349   -1.0645    0.0000 C   0  0
   29.7313   -3.3127    0.0000 C   0  0
   30.4302   -3.7138    0.0000 C   0  0
   31.1249   -3.3091    0.0000 C   0  0
   31.1219   -2.5036    0.0000 C   0  0
   30.4184   -2.1043    0.0000 C   0  0
   29.7266   -2.5113    0.0000 C   0  0
   31.2225   -4.7381    0.0000 C   0  0
   31.7012   -3.8837    0.0000 C   0  0
  1  2  2  0
  2  3  1  0
  3  4  2  0
  4  5  1  0
  5  6  2  0
  6  1  1  0
  5  7  1  0
  7  8  1  0
  8  9  1  0
  6 10  1  0
 10 11  1  0
 10 12  1  0
 10 13  1  0
  7 14  1  0
 14 15  2  0
 15 16  1  0
 16 17  2  0
 17 23  1  0
 22 14  1  0
  9 18  1  0
  9 19  2  0
 18 20  1  0
 18 21  1  0
 22 23  1  0
 23 24  2  0
 24 25  1  0
 25 26  2  0
 26 27  1  0
 27 22  2  0
 17 28  1  0
 24 29  1  0
 29 28  1  0
M  END