
  SciTegic03291108532D

 33 37  0  0  1  0            999 V2000
   -0.9233   -0.3992    0.0000 O   0  0
    0.7697    2.0233    0.0000 O   0  0
   -2.5399    1.3858    0.0000 O   0  0
   -4.6833    0.9733    0.0000 O   0  0
   -3.2544    0.9733    0.0000 O   0  0
   -0.3965    0.9733    0.0000 N   0  0
   -1.8254    2.6233    0.0000 N   0  0
   -1.1110    2.2108    0.0000 C   0  0
    0.4967   -0.0187    0.0000 C   0  0
    0.9092    0.6958    0.0000 C   0  0
   -0.3103    0.1528    0.0000 C   0  0
    0.3572    1.3089    0.0000 C   0  0
   -0.3965    2.6233    0.0000 C   0  0
   -1.1110    1.3858    0.0000 C   0  0
   -2.5399    2.2108    0.0000 C   0  0
   -0.3965    3.4483    0.0000 C   0  0
   -3.2544    2.6233    0.0000 C   0  0  2  0  0  0
   -1.8254    3.4483    0.0000 C   0  0
    0.9092   -0.7332    0.0000 C   0  0
    1.7342    0.6958    0.0000 C   0  0
   -1.1110    3.8608    0.0000 C   0  0
    0.3180    2.2108    0.0000 C   0  0
   -3.9688    2.2108    0.0000 C   0  0  2  0  0  0
    0.3180    3.8608    0.0000 C   0  0
    1.7342   -0.7332    0.0000 C   0  0
    2.1467   -0.0187    0.0000 C   0  0
   -3.2544    3.4483    0.0000 C   0  0
    1.0325    2.6233    0.0000 C   0  0
   -3.9688    1.3858    0.0000 C   0  0
    1.0325    3.4483    0.0000 C   0  0
   -4.6833    2.6233    0.0000 C   0  0
   -3.9688    3.8608    0.0000 C   0  0
   -4.6833    3.4483    0.0000 C   0  0
  1 11  2  0
  2 12  2  0
  3 15  2  0
  4 29  2  0
  5 29  1  0
  6 11  1  0
  6 12  1  0
  6 14  1  0
  7  8  1  0
  7 15  1  0
  7 18  1  0
  8 13  1  0
  8 14  1  0
  9 10  1  0
  9 11  1  0
  9 19  2  0
 10 12  1  0
 10 20  2  0
 13 16  1  0
 13 22  2  0
 17 15  1  6
 16 21  1  0
 16 24  2  0
 17 23  1  0
 17 27  1  0
 18 21  1  0
 19 25  1  0
 20 26  1  0
 22 28  1  0
 23 29  1  6
 23 31  1  0
 24 30  1  0
 25 26  2  0
 27 32  1  0
 28 30  2  0
 31 33  1  0
 32 33  1  0
M  END