
          11280715292D 1   1.00000     0.00000     0

 18 20  0     0  0            999 V2000
    6.3125   -7.1500    0.0000 C   0  0  0  0  0  0           0  0  0
    6.3042   -6.5500    0.0000 C   0  0  0  0  0  0           0  0  0
    6.8250   -6.2500    0.0000 C   0  0  0  0  0  0           0  0  0
    5.2750   -6.5542    0.0000 C   0  0  0  0  0  0           0  0  0
    5.2792   -7.1542    0.0000 C   0  0  0  0  0  0           0  0  0
    6.8250   -7.4417    0.0000 O   0  0  0  0  0  0           0  0  0
    7.3417   -7.1417    0.0000 C   0  0  0  0  0  0           0  0  0
    7.3417   -6.5417    0.0000 C   0  0  0  0  0  0           0  0  0
    5.7917   -6.2542    0.0000 C   0  0  0  0  0  0           0  0  0
    5.8000   -7.4500    0.0000 C   0  0  0  0  0  0           0  0  0
    4.7042   -7.3500    0.0000 O   0  0  0  0  0  0           0  0  0
    4.7042   -6.3750    0.0000 C   0  0  0  0  0  0           0  0  0
    4.3542   -6.8625    0.0000 C   0  0  0  0  0  0           0  0  0
    7.8625   -7.4417    0.0000 O   0  0  0  0  0  0           0  0  0
    6.8167   -5.6500    0.0000 C   0  0  0  0  0  0           0  0  0
    4.5167   -5.8042    0.0000 C   0  0  0  0  0  0           0  0  0
    7.3375   -5.3417    0.0000 O   0  0  0  0  0  0           0  0  0
    7.3292   -4.7417    0.0000 C   0  0  0  0  0  0           0  0  0
  2  1  2  0     0  0
  3  2  1  0     0  0
  4  5  1  0     0  0
  5 10  2  0     0  0
  6  1  1  0     0  0
  7  6  1  0     0  0
  8  7  1  0     0  0
  9  2  1  0     0  0
 10  1  1  0     0  0
 11  5  1  0     0  0
 12  4  1  0     0  0
 13 11  1  0     0  0
 14  7  2  0     0  0
 15  3  1  0     0  0
 16 12  1  0     0  0
 17 15  1  0     0  0
 18 17  1  0     0  0
  9  4  2  0     0  0
  3  8  2  0     0  0
 12 13  2  0     0  0
M  END