
  SciTegic10011413212D

 49 51  0  0  0  0            999 V2000
   18.6859  -16.5347    0.0000 D   0  0
   18.9819  -15.9013    0.0000 D   0  0
   18.4401  -15.1305    0.0000 D   0  0
   16.0026  -15.5513    0.0000 D   0  0
   16.2276  -14.8222    0.0000 D   0  0
   17.0985  -14.6346    0.0000 D   0  0
   14.6117  -24.4294    0.0000 C   0  0  2  0  0  0
   15.3255  -24.8414    0.0000 C   0  0
   16.0392  -24.4294    0.0000 C   0  0  2  0  0  0
   14.6117  -23.5969    0.0000 C   0  0
   15.3255  -23.1847    0.0000 C   0  0
   15.3255  -22.3565    0.0000 C   0  0
   16.0392  -21.9444    0.0000 C   0  0
   16.0392  -21.1202    0.0000 C   0  0
   16.7529  -20.7081    0.0000 C   0  0  2  0  0  0
   17.5367  -20.9629    0.0000 C   0  0
   18.0211  -20.2920    0.0000 C   0  0
   17.5367  -19.6294    0.0000 C   0  0  2  0  0  0
   17.8289  -18.8581    0.0000 C   0  0  1  0  0  0
   18.6428  -18.7208    0.0000 C   0  0
   19.1674  -19.3556    0.0000 C   0  0
   19.6939  -19.9934    0.0000 C   0  0
   20.2184  -20.6323    0.0000 C   0  0
   17.3019  -18.2176    0.0000 C   0  0
   16.7529  -19.8799    0.0000 C   0  0  2  0  0  0
   16.7529  -19.0516    0.0000 C   0  0
   16.0392  -19.4678    0.0000 C   0  0
   15.3213  -19.8799    0.0000 C   0  0
   15.3213  -20.7081    0.0000 C   0  0
   16.0392  -23.5969    0.0000 C   0  0
   13.8896  -24.8497    0.0000 O   0  0
   18.3567  -19.5877    0.0000 H   0  0
   16.7615  -24.8511    0.0000 O   0  0
   17.5886  -17.4472    0.0000 C   0  0
   17.0606  -16.8147    0.0000 C   0  0
   17.3432  -16.0443    0.0000 C   0  0
   18.1561  -15.9030    0.0000 C   0  0
   16.8145  -15.4110    0.0000 C   0  0
   17.5546  -15.2421    0.0000 O   0  0
   19.9279  -21.4045    0.0000 C   0  0
   21.0324  -20.4978    0.0000 C   0  0
   20.8005  -21.2130    0.0000 O   0  0
   21.5559  -21.1355    0.0000 F   0  0
   21.3229  -19.7256    0.0000 F   0  0
   21.8255  -20.2797    0.0000 F   0  0
   19.1139  -21.5390    0.0000 F   0  0
   20.4514  -22.0422    0.0000 F   0  0
   19.7089  -22.1964    0.0000 F   0  0
   16.7462  -21.5297    0.0000 H   0  0
  7  8  1  0
  8  9  1  0
  7 10  1  0
 10 11  1  0
 11 12  2  0
 12 13  1  0
 13 14  2  0
 15 14  1  0
 15 16  1  0
 16 17  1  0
 18 17  1  0
 19 18  1  0
 19 20  1  6
 20 21  1  0
 21 22  3  0
 22 23  1  0
 19 24  1  0
 18 25  1  0
 25 15  1  0
 25 26  1  1
 25 27  1  0
 27 28  1  0
 28 29  1  0
 14 29  1  0
  9 30  1  0
 11 30  1  0
  7 31  1  1
 18 32  1  6
  9 33  1  6
 24 34  1  0
 34 35  1  0
 35 36  1  0
 36 37  1  0
 36 38  1  0
 36 39  1  0
 23 40  1  0
 23 41  1  0
 23 42  1  0
 41 43  1  0
 41 44  1  0
 41 45  1  0
 40 46  1  0
 40 47  1  0
 40 48  1  0
 37  1  1  0
 37  3  1  0
 37  2  1  0
 38  6  1  0
 38  4  1  0
 38  5  1  0
 15 49  1  6
M  END