
          11280714572D 1   1.00000     0.00000     0

 30 34  0     0  0            999 V2000
    3.0042   -6.8917    0.0000 C   0  0  0  0  0  0           0  0  0
    4.4375   -1.1167    0.0000 C   0  0  0  0  0  0           0  0  0
    3.7250   -2.3625    0.0000 C   0  0  0  0  0  0           0  0  0
    4.4417   -1.9417    0.0000 C   0  0  0  0  0  0           0  0  0
    2.2542   -7.2292    0.0000 N   0  0  0  0  0  0           0  0  0
    1.7042   -6.6167    0.0000 N   0  0  0  0  0  0           0  0  0
    3.7250   -0.7042    0.0000 N   0  0  0  0  0  0           0  0  0
    3.0125   -1.9500    0.0000 N   0  0  0  0  0  0           0  0  0
    2.9167   -6.0750    0.0000 N   0  0  0  0  0  0           0  0  0
    2.1167   -5.9042    0.0000 N   0  0  0  0  0  0           0  0  0
    3.7250   -7.3042    0.0000 C   0  0  0  0  0  0           0  0  0
    5.7125   -1.5250    0.0000 N   0  0  0  0  0  0           0  0  0
    3.0125   -1.1167    0.0000 C   0  0  0  0  0  0           0  0  0
    5.2167   -0.8542    0.0000 N   0  0  0  0  0  0           0  0  0
    4.4417   -6.8917    0.0000 C   0  0  0  0  0  0           0  0  0
    3.7250   -3.1875    0.0000 N   0  0  0  0  0  0           0  0  0
    5.2292   -2.1917    0.0000 C   0  0  0  0  0  0           0  0  0
    4.4417   -6.0667    0.0000 C   0  0  0  0  0  0           0  0  0
    3.7250   -5.6542    0.0000 C   0  0  0  0  0  0           0  0  0
    5.1542   -5.6542    0.0000 C   0  0  0  0  0  0           0  0  0
    4.4417   -3.6000    0.0000 C   0  0  0  0  0  0           0  0  0
    4.4417   -4.4250    0.0000 C   0  0  0  0  0  0           0  0  0
    3.7250   -4.8292    0.0000 C   0  0  0  0  0  0           0  0  0
    5.1542   -4.8292    0.0000 C   0  0  0  0  0  0           0  0  0
    3.7250   -8.1292    0.0000 C   0  0  0  0  0  0           0  0  0
    5.1542   -7.3000    0.0000 C   0  0  0  0  0  0           0  0  0
    2.3000   -0.7125    0.0000 C   0  0  0  0  0  0           0  0  0
    2.3000    0.1125    0.0000 C   0  0  0  0  0  0           0  0  0
    5.1542   -8.1250    0.0000 C   0  0  0  0  0  0           0  0  0
    4.4417   -8.5417    0.0000 C   0  0  0  0  0  0           0  0  0
  2  4  1  0     0  0
  3 16  1  0     0  0
  4  3  1  0     0  0
  5  1  1  0     0  0
  6  5  2  0     0  0
  7 13  2  0     0  0
  8  3  2  0     0  0
  9  1  2  0     0  0
 10  9  1  0     0  0
 11  1  1  0     0  0
 12 17  1  0     0  0
 13  8  1  0     0  0
 14  2  2  0     0  0
 15 11  2  0     0  0
 16 21  1  0     0  0
 17  4  2  0     0  0
 18 15  1  0     0  0
 19 18  2  0     0  0
 20 18  1  0     0  0
 21 22  1  0     0  0
 22 24  1  0     0  0
 23 19  1  0     0  0
 24 20  2  0     0  0
 25 11  1  0     0  0
 26 15  1  0     0  0
 27 13  1  0     0  0
 28 27  1  0     0  0
 29 30  1  0     0  0
 30 25  2  0     0  0
  6 10  1  0     0  0
 26 29  2  0     0  0
 23 22  2  0     0  0
  7  2  1  0     0  0
 14 12  1  0     0  0
M  END