
  SciTegic01161211262D

 35 38  0  0  0  0            999 V2000
    4.6875   -4.3417    0.0000 N   0  0
    5.4750   -4.1042    0.0000 C   0  0
    4.7125   -3.0042    0.0000 N   0  3
    5.4917   -3.2750    0.0000 C   0  0
    4.4125   -5.1167    0.0000 C   0  0  1  0  0  0
    6.1792   -4.5333    0.0000 N   0  0
    4.2167   -3.6625    0.0000 C   0  0
    6.2167   -2.8750    0.0000 C   0  0
    6.9250   -3.3083    0.0000 N   0  0
    4.8792   -5.8000    0.0000 C   0  0  1  0  0  0
    6.9083   -4.1375    0.0000 C   0  0
    3.6208   -5.3583    0.0000 O   0  0
    1.5000   -6.7708    0.0000 P   0  0
    3.6000   -6.1833    0.0000 C   0  0  1  0  0  0
    4.3792   -6.4583    0.0000 C   0  0  1  0  0  0
    5.1042    0.5625    0.0000 C   0  0
    4.4708   -2.2167    0.0000 C   0  0
    5.3500   -0.2250    0.0000 C   0  0
    2.9250   -6.6542    0.0000 C   0  0
    2.1792   -6.3000    0.0000 O   0  0
    6.2333   -2.0500    0.0000 O   0  0
    2.0292   -7.4042    0.0000 O   0  5
    0.9125   -7.3500    0.0000 O   0  0
    0.9708   -6.1333    0.0000 O   0  0
    4.7917   -0.8292    0.0000 C   0  0
    5.0333   -1.6125    0.0000 C   0  0
    7.6125   -4.5625    0.0000 N   0  0
    5.7042   -5.8208    0.0000 O   0  0
    5.6667    1.1667    0.0000 F   0  0
    4.3000    0.7458    0.0000 F   0  0
    4.8875    1.3625    0.0000 F   0  0
    4.6167   -7.2458    0.0000 O   0  0
    6.1583   -0.4083    0.0000 C   0  0
    6.4000   -1.2000    0.0000 C   0  0
    5.8375   -1.8000    0.0000 C   0  0
  2  1  1  0
  3  7  2  0
  4  2  2  0
  5  1  1  1
  6  2  1  0
  7  1  1  0
  8  4  1  0
  9  8  1  0
 10  5  1  0
 11  6  2  0
 12  5  1  0
 13 20  1  0
 14 12  1  0
 15 10  1  0
 16 18  1  0
 17  3  1  0
 18 25  2  0
 14 19  1  1
 20 19  1  0
 21  8  2  0
 22 13  1  0
 23 13  1  0
 24 13  2  0
 25 26  1  0
 26 17  1  0
 27 11  1  0
 10 28  1  6
 29 16  1  0
 30 16  1  0
 31 16  1  0
 15 32  1  6
 33 18  1  0
 34 35  1  0
 35 26  2  0
  3  4  1  0
 15 14  1  0
  9 11  1  0
 33 34  2  0
M  CHG  2   3   1  22  -1
M  END