
  SciTegic09261414552D

 34 39  0  0  0  0            999 V2000
    2.4736   -3.8458    0.0000 C   0  0
    2.4724   -4.6731    0.0000 C   0  0
    3.1872   -5.0860    0.0000 C   0  0
    3.1854   -3.4330    0.0000 C   0  0
    3.9008   -3.8421    0.0000 C   0  0
    3.9015   -4.6689    0.0000 C   0  0
    4.6169   -5.0799    0.0000 C   0  0
    5.3318   -4.6652    0.0000 C   0  0
    5.3271   -3.8352    0.0000 C   0  0
    4.6112   -3.4280    0.0000 C   0  0
    4.6176   -5.9016    0.0000 C   0  0
    3.9023   -6.3149    0.0000 N   0  0
    3.9037   -7.1392    0.0000 C   0  0
    4.6196   -7.5510    0.0000 C   0  0
    5.3306   -6.3098    0.0000 C   0  0
    5.3394   -7.1347    0.0000 C   0  0
    6.1266   -7.3813    0.0000 N   0  0
    6.6044   -6.7087    0.0000 C   0  0
    6.1125   -6.0466    0.0000 C   0  0
    7.4309   -6.6976    0.0000 C   0  0
    7.8509   -7.4076    0.0000 O   0  0
    7.8358   -5.9788    0.0000 O   0  0
    6.3897   -8.1632    0.0000 C   0  0
    5.8443   -8.7820    0.0000 C   0  0
    5.0261   -8.7018    0.0000 N   0  0
    4.6980   -9.4597    0.0000 O   0  0
    5.3186  -10.0051    0.0000 C   0  0
    6.0282   -9.5823    0.0000 N   0  0
    5.2434  -10.8233    0.0000 C   0  0
    4.4926  -11.1678    0.0000 C   0  0
    4.4167  -11.9886    0.0000 C   0  0
    5.0908  -12.4657    0.0000 C   0  0
    5.8428  -12.1162    0.0000 C   0  0
    5.9151  -11.2965    0.0000 C   0  0
  1  2  2  0
  2  3  1  0
  3  6  2  0
  5  4  2  0
  4  1  1  0
  5  6  1  0
  6  7  1  0
  7  8  2  0
  8  9  1  0
  9 10  2  0
 10  5  1  0
 11 12  2  0
 12 13  1  0
 13 14  2  0
 14 16  1  0
 15 11  1  0
  7 11  1  0
 15 16  2  0
 16 17  1  0
 17 18  1  0
 18 19  2  0
 19 15  1  0
 20 21  1  0
 20 22  2  0
 18 20  1  0
 17 23  1  0
 23 24  1  0
 25 26  1  0
 24 25  2  0
 26 27  1  0
 27 28  2  0
 28 24  1  0
 29 30  2  0
 30 31  1  0
 31 32  2  0
 32 33  1  0
 33 34  2  0
 34 29  1  0
 27 29  1  0
M  END