
  CDK    9/16/09,9:55

 37 40  0  0  0  0  0  0  0  0999 V2000
   -3.0949  -18.3432    0.0000 C   0  0  0  0  0  0  0  0  0  0  0  0
   -3.0964  -19.1709    0.0000 C   0  0  0  0  0  0  0  0  0  0  0  0
   -2.3809  -19.5792    0.0000 C   0  0  0  0  0  0  0  0  0  0  0  0
   -2.3829  -17.9303    0.0000 C   0  0  0  0  0  0  0  0  0  0  0  0
   -1.6663  -18.3387    0.0000 C   0  0  0  0  0  0  0  0  0  0  0  0
   -1.6658  -19.1709    0.0000 C   0  0  0  0  0  0  0  0  0  0  0  0
   -0.8736  -19.4255    0.0000 N   0  0  0  0  0  0  0  0  0  0  0  0
   -0.3867  -18.7539    0.0000 C   0  0  0  0  0  0  0  0  0  0  0  0
   -0.8746  -18.0784    0.0000 N   0  0  0  0  0  0  0  0  0  0  0  0
   -0.6279  -20.2079    0.0000 C   0  0  0  0  0  0  0  0  0  0  0  0
   -1.2104  -20.7896    0.0000 C   0  0  0  0  0  0  0  0  0  0  0  0
   -2.0050  -20.5750    0.0000 C   0  0  0  0  0  0  0  0  0  0  0  0
   -2.5917  -21.1558    0.0000 C   0  0  0  0  0  0  0  0  0  0  0  0
   -2.3761  -21.9556    0.0000 C   0  0  0  0  0  0  0  0  0  0  0  0
   -1.5769  -22.1666    0.0000 C   0  0  0  0  0  0  0  0  0  0  0  0
   -0.9985  -21.5841    0.0000 C   0  0  0  0  0  0  0  0  0  0  0  0
   -2.9621  -22.5377    0.0000 C   0  0  0  0  0  0  0  0  0  0  0  0
   -3.7571  -22.3244    0.0000 C   0  0  0  0  0  0  0  0  0  0  0  0
   -4.3430  -22.9060    0.0000 C   0  0  0  0  0  0  0  0  0  0  0  0
   -4.1262  -23.7056    0.0000 C   0  0  0  0  0  0  0  0  0  0  0  0
   -3.3267  -23.9155    0.0000 C   0  0  0  0  0  0  0  0  0  0  0  0
   -2.7445  -23.3320    0.0000 C   0  0  0  0  0  0  0  0  0  0  0  0
   -3.9731  -21.5257    0.0000 C   0  0  0  0  0  0  0  0  0  0  0  0
   -3.3863  -20.9438    0.0000 O   0  0  0  0  0  0  0  0  0  0  0  0
   -4.7672  -21.3135    0.0000 O   0  0  0  0  0  0  0  0  0  0  0  0
   -4.5244  -17.5182    0.0000 N   0  0  0  0  0  0  0  0  0  0  0  0
   -3.3962  -17.2135    0.0000 O   0  0  0  0  0  0  0  0  0  0  0  0
   -4.2160  -18.6463    0.0000 O   0  0  0  0  0  0  0  0  0  0  0  0
   -3.8112  -17.9307    0.0000 S   0  0  0  0  0  0  0  0  0  0  0  0
    0.4382  -18.7546    0.0000 C   0  0  0  0  0  0  0  0  0  0  0  0
    0.8500  -19.4694    0.0000 C   0  0  0  0  0  0  0  0  0  0  0  0
    1.6750  -19.4701    0.0000 C   0  0  0  0  0  0  0  0  0  0  0  0
    2.0868  -20.1850    0.0000 C   0  0  0  0  0  0  0  0  0  0  0  0
   -5.2392  -17.9302    0.0000 C   0  0  0  0  0  0  0  0  0  0  0  0
   -5.9581  -18.3371    0.0000 C   0  0  0  0  0  0  0  0  0  0  0  0
   -4.8300  -18.6464    0.0000 C   0  0  0  0  0  0  0  0  0  0  0  0
   -5.6474  -17.2132    0.0000 C   0  0  0  0  0  0  0  0  0  0  0  0
  4  1  1  0  0  0  0 
 19 20  2  0  0  0  0 
 20 21  1  0  0  0  0 
  5  6  1  0  0  0  0 
 21 22  2  0  0  0  0 
 22 17  1  0  0  0  0 
 14 17  1  0  0  0  0 
  7 10  1  0  0  0  0 
 18 23  1  0  0  0  0 
 23 24  2  0  0  0  0 
 10 11  1  0  0  0  0 
 23 25  1  0  0  0  0 
  2  3  1  0  0  0  0 
 11 12  2  0  0  0  0 
  3  6  2  0  0  0  0 
 12 13  1  0  0  0  0 
  1  2  2  0  0  0  0 
  1 29  1  0  0  0  0 
 13 14  2  0  0  0  0 
 29 26  1  0  0  0  0 
  5  4  2  0  0  0  0 
 29 27  2  0  0  0  0 
 14 15  1  0  0  0  0 
  6  7  1  0  0  0  0 
 28 29  2  0  0  0  0 
  8 30  1  0  0  0  0 
 15 16  2  0  0  0  0 
 30 31  1  0  0  0  0 
 16 11  1  0  0  0  0 
 31 32  1  0  0  0  0 
  7  8  1  0  0  0  0 
 32 33  1  0  0  0  0 
  8  9  2  0  0  0  0 
 26 34  1  0  0  0  0 
 17 18  2  0  0  0  0 
 34 35  1  0  0  0  0 
  9  5  1  0  0  0  0 
 34 36  1  0  0  0  0 
 18 19  1  0  0  0  0 
 34 37  1  0  0  0  0 
M  END