
          11280715132D 1   1.00000     0.00000     0

 37 40  0     0  0            999 V2000
    5.6667   -0.7417    0.0000 C   0  0  0  0  0  0           0  0  0
    5.0000   -1.2292    0.0000 C   0  0  0  0  0  0           0  0  0
    5.0875   -2.0500    0.0000 C   0  0  0  0  0  0           0  0  0
    5.5917    0.0833    0.0000 C   0  0  0  0  0  0           0  0  0
    4.9417   -3.3750    0.0000 N   0  0  0  0  0  0           0  0  0
    5.8375   -2.3792    0.0000 C   0  0  0  0  0  0           0  0  0
    5.7500   -3.2042    0.0000 O   0  0  0  0  0  0           0  0  0
    3.2417   -5.1542    0.0000 N   0  0  3  0  0  0           0  0  0
    6.5042   -1.8917    0.0000 N   0  0  0  0  0  0           0  0  0
    4.5292   -2.6667    0.0000 C   0  0  0  0  0  0           0  0  0
    6.4167   -1.0750    0.0000 C   0  0  0  0  0  0           0  0  0
    1.0542   -4.9667    0.0000 C   0  0  3  0  0  0           0  0  0
    3.3292   -5.9750    0.0000 C   0  0  0  0  0  0           0  0  0
    3.0750   -3.5042    0.0000 N   0  0  3  0  0  0           0  0  0
    6.2667    0.5583    0.0000 N   0  0  3  0  0  0           0  0  0
    4.8417    0.4333    0.0000 O   0  0  0  0  0  0           0  0  0
    2.6625   -6.4625    0.0000 C   0  0  0  0  0  0           0  0  0
    1.9000   -6.1292    0.0000 O   0  0  0  0  0  0           0  0  0
    3.9167   -4.6667    0.0000 C   0  0  0  0  0  0           0  0  0
    2.4917   -4.8167    0.0000 C   0  0  0  0  0  0           0  0  0
    4.2375   -0.8917    0.0000 N   0  0  0  0  0  0           0  0  0
    1.8042   -5.3042    0.0000 C   0  0  0  0  0  0           0  0  0
    1.3917   -4.2125    0.0000 F   0  0  0  0  0  0           0  0  0
    0.7167   -5.7292    0.0000 F   0  0  0  0  0  0           0  0  0
    0.3000   -4.6292    0.0000 F   0  0  0  0  0  0           0  0  0
    3.8292   -3.8417    0.0000 C   0  0  0  0  0  0           0  0  0
    2.4042   -3.9917    0.0000 C   0  0  0  0  0  0           0  0  0
    2.9875   -2.6875    0.0000 C   0  0  0  0  0  0           0  0  0
    3.6542   -2.2000    0.0000 C   0  0  0  0  0  0           0  0  0
    3.7042   -2.5917    0.0000 C   0  0  0  0  0  0           0  0  0
    4.0875   -6.3125    0.0000 C   0  0  0  0  0  0           0  0  0
    3.5667   -1.3792    0.0000 C   0  0  0  0  0  0           0  0  0
    7.0167    0.2083    0.0000 C   0  0  0  0  0  0           0  0  0
    6.1917    1.3833    0.0000 C   0  0  0  0  0  0           0  0  0
    2.7500   -7.2792    0.0000 C   0  0  0  0  0  0           0  0  0
    4.1750   -7.1292    0.0000 C   0  0  0  0  0  0           0  0  0
    3.5042   -7.6167    0.0000 C   0  0  0  0  0  0           0  0  0
  2  1  1  0     0  0
  3  2  2  0     0  0
  4  1  1  0     0  0
  5 10  2  0     0  0
  6  9  2  0     0  0
  7  6  1  0     0  0
  8 20  1  0     0  0
  9 11  1  0     0  0
 10  3  1  0     0  0
 11  1  2  0     0  0
 12 22  1  0     0  0
 13  8  1  0     0  0
 14 28  1  0     0  0
 15  4  1  0     0  0
 16  4  2  0     0  0
 17 13  1  0     0  0
 18 17  1  0     0  0
 19 26  1  0     0  0
 20 27  1  0     0  0
 21  2  1  0     0  0
 22 18  1  0     0  0
 23 12  1  0     0  0
 24 12  1  0     0  0
 25 12  1  0     0  0
 26 14  1  0     0  0
 27 14  1  0     0  0
 28 29  1  0     0  0
 29 32  1  0     0  0
 30 10  1  0     0  0
 31 13  2  0     0  0
 32 21  1  0     0  0
 33 15  1  0     0  0
 34 15  1  0     0  0
 35 17  2  0     0  0
 36 31  1  0     0  0
 37 36  2  0     0  0
  6  3  1  0     0  0
  7  5  1  0     0  0
  8 19  1  0     0  0
 37 35  1  0     0  0
M  END