
  SciTegic10301317112D

 73 77  0  0  1  0            999 V2000
   14.5872   -7.3394    0.0000 N   0  0
   13.8830   -6.9272    0.0000 C   0  0
    9.6065   -8.5932    0.0000 C   0  0
    5.2956   -6.9787    0.0000 C   0  0
    9.5893   -6.9444    0.0000 C   0  0
    7.4539   -7.3738    0.0000 C   0  0
   11.7362   -7.3394    0.0000 C   0  0
   15.3601   -7.6428    0.0000 C   0  0  2  0  0  0
   10.9118   -8.8680    0.0000 N   0  0
    6.0170   -7.3909    0.0000 N   0  0
    8.1638   -6.9616    0.0000 N   0  0
    4.5914   -7.4081    0.0000 C   0  0  1  0  0  0
   10.3107   -7.3566    0.0000 N   0  0
   12.4517   -6.9215    0.0000 N   0  0
   10.3622   -8.2611    0.0000 C   0  0
    8.8852   -7.3680    0.0000 C   0  0  2  0  0  0
    6.7211   -6.9730    0.0000 C   0  0  1  0  0  0
   11.0262   -6.9386    0.0000 C   0  0  1  0  0  0
   15.5776   -8.4386    0.0000 C   0  0
   13.1731   -7.3394    0.0000 C   0  0  1  0  0  0
   14.5528  -10.6542    0.0000 C   0  0
    3.8701   -6.9959    0.0000 N   0  0
    9.6924   -9.4176    0.0000 C   0  0
    8.8852   -8.1924    0.0000 C   0  0
    3.1488   -7.4081    0.0000 C   0  0
    2.4388   -7.0073    0.0000 C   0  0
   10.5110   -9.5836    0.0000 C   0  0
   13.8429  -11.0606    0.0000 N   0  0
    1.7233   -7.4253    0.0000 C   0  0
   13.8944   -6.1028    0.0000 O   0  0
    5.2956   -6.1544    0.0000 O   0  0
    9.5893   -6.1200    0.0000 O   0  0
   11.7534   -8.1638    0.0000 O   0  0
    7.4596   -8.1982    0.0000 O   0  0
    6.7211   -6.1372    0.0000 C   0  0
   14.9822   -9.0226    0.0000 O   0  0
   11.0148   -6.1028    0.0000 C   0  0
    3.1659   -8.2439    0.0000 O   0  0
   14.5700   -9.8298    0.0000 N   0  0
   16.3734   -8.6561    0.0000 N   0  0
   15.2684  -11.0778    0.0000 N   0  0
   14.6387   -6.5150    0.0000 C   0  0
    1.0133   -7.0131    0.0000 C   0  0
    7.4367   -5.7250    0.0000 C   0  0
    8.8622   -4.8834    0.0000 C   0  0
   -0.4236   -6.1887    0.0000 C   0  0
    4.5914   -8.2267    0.0000 C   0  0
    1.0133   -6.1887    0.0000 C   0  0
    0.3091   -7.4253    0.0000 C   0  0
    8.1580   -6.1314    0.0000 C   0  0
    7.4253   -4.9006    0.0000 C   0  0
    8.8680   -5.7078    0.0000 C   0  0
    8.1466   -4.4826    0.0000 C   0  0
   -0.4064   -7.0245    0.0000 C   0  0
    0.2977   -5.7765    0.0000 C   0  0
   15.8867   -7.0073    0.0000 C   0  0
    9.5721   -4.4712    0.0000 O   0  0
   -1.1278   -5.7879    0.0000 O   0  0
    5.3128   -8.6275    0.0000 O   0  0
   15.4402   -6.3089    0.0000 C   0  0
   13.1617   -8.1638    0.0000 C   0  0
    9.1542  -10.0359    0.0000 C   0  0
   11.7190   -5.6906    0.0000 C   0  0
   10.7744  -10.3736    0.0000 C   0  0
   16.5795   -9.4519    0.0000 C   0  0
   13.8487   -9.4118    0.0000 C   0  0
   -1.8377   -6.2059    0.0000 C   0  0
   13.8659   -8.5932    0.0000 C   0  0
   12.4403   -6.0971    0.0000 C   0  0
   11.7190   -4.8662    0.0000 C   0  0
   17.3695   -9.6694    0.0000 C   0  0
    9.4118  -10.8259    0.0000 C   0  0
   10.2248  -10.9805    0.0000 C   0  0
  2  1  1  0
  3 24  1  0
  4 10  1  0
  5 13  1  0
  6 11  1  0
  7 14  1  0
  8  1  1  0
  9 15  1  0
 10 17  1  0
 11 16  1  0
 12  4  1  0
 13 18  1  0
 14 20  1  0
 15  3  2  0
 16  5  1  0
 17  6  1  0
 18  7  1  0
  8 19  1  1
 20  2  1  0
 21 39  2  0
 22 12  1  0
 23  3  1  0
 16 24  1  1
 25 22  1  0
 26 25  1  0
 27 23  2  0
 28 21  1  0
 29 26  2  0
 30  2  2  0
 31  4  2  0
 32  5  2  0
 33  7  2  0
 34  6  2  0
 17 35  1  1
 36 19  2  0
 18 37  1  1
 38 25  2  0
 39 66  1  0
 40 19  1  0
 41 21  1  0
 42  1  1  0
 43 29  1  0
 44 35  1  0
 45 53  1  0
 46 54  1  0
 12 47  1  6
 48 43  2  0
 49 43  1  0
 50 44  2  0
 51 44  1  0
 52 50  1  0
 53 51  2  0
 54 49  2  0
 55 48  1  0
 56  8  1  0
 57 45  1  0
 58 46  1  0
 59 47  1  0
 60 42  1  0
 20 61  1  6
 62 23  1  0
 63 37  1  0
 64 27  1  0
 65 40  1  0
 66 68  1  0
 67 58  1  0
 68 61  1  0
 69 63  1  0
 70 63  1  0
 71 65  1  0
 72 62  2  0
 73 72  1  0
 60 56  1  0
 27  9  1  0
 64 73  2  0
 45 52  2  0
 55 46  2  0
M  END