
          11280715102D 1   1.00000     0.00000     0

 18 19  0     0  0            999 V2000
   -2.9125    1.1000    0.0000 C   0  0  0  0  0  0           0  0  0
   -2.9125    0.2750    0.0000 C   0  0  3  0  0  0           0  0  0
   -0.0458    2.7708    0.0000 C   0  0  3  0  0  0           0  0  0
   -0.7583    2.3500    0.0000 C   0  0  0  0  0  0           0  0  0
    0.6750    2.3500    0.0000 C   0  0  0  0  0  0           0  0  0
   -0.0458    1.9333    0.0000 C   0  0  0  0  0  0           0  0  0
   -1.4750    2.7708    0.0000 N   0  0  0  0  0  0           0  0  0
   -3.6250    1.5125    0.0000 C   0  0  0  0  0  0           0  0  0
   -2.1958    1.5125    0.0000 C   0  0  0  0  0  0           0  0  0
   -2.1958    2.3458    0.0000 C   0  0  0  0  0  0           0  0  0
   -0.7500    1.5250    0.0000 O   0  0  0  0  0  0           0  0  0
   -3.7375    0.2750    0.0000 F   0  0  0  0  0  0           0  0  0
   -2.0875    0.2750    0.0000 F   0  0  0  0  0  0           0  0  0
   -2.9125   -0.5500    0.0000 F   0  0  0  0  0  0           0  0  0
   -3.6250    2.3375    0.0000 C   0  0  0  0  0  0           0  0  0
   -2.9125    2.7583    0.0000 C   0  0  0  0  0  0           0  0  0
   -4.3458    1.0875    0.0000 O   0  0  0  0  0  0           0  0  0
   -0.0458    3.5958    0.0000 C   0  0  0  0  0  0           0  0  0
  2  1  1  0     0  0
  3  4  1  0     0  0
  4  7  1  0     0  0
  5  3  1  0     0  0
  6  3  1  0     0  0
  7 10  1  0     0  0
  8  1  1  0     0  0
  9  1  2  0     0  0
 10  9  1  0     0  0
 11  4  2  0     0  0
 12  2  1  0     0  0
 13  2  1  0     0  0
 14  2  1  0     0  0
 15  8  2  0     0  0
 16 10  2  0     0  0
 17  8  1  0     0  0
 18  3  1  0     0  0
 15 16  1  0     0  0
  6  5  1  0     0  0
M  END