
          11280715082D 1   1.00000     0.00000     0

 26 27  0     1  0            999 V2000
    0.7000   -1.1542    0.0000 C   0  0  2  0  0  0           0  0  0
    1.4125   -0.7417    0.0000 N   0  0  0  0  0  0           0  0  0
   -0.0125   -0.7417    0.0000 C   0  0  0  0  0  0           0  0  0
    2.1292   -1.1542    0.0000 C   0  0  0  0  0  0           0  0  0
   -0.7333   -1.1542    0.0000 N   0  0  0  0  0  0           0  0  0
   -0.0125    0.0833    0.0000 C   0  0  0  0  0  0           0  0  0
    0.7000   -1.9792    0.0000 C   0  0  0  0  0  0           0  0  0
    2.1292   -1.9792    0.0000 O   0  0  0  0  0  0           0  0  0
   -0.7333    0.4958    0.0000 C   0  0  0  0  0  0           0  0  0
   -1.4458   -0.7417    0.0000 C   0  0  0  0  0  0           0  0  0
    5.7000   -0.7417    0.0000 N   0  0  0  0  0  0           0  0  0
   -0.0125   -2.3917    0.0000 C   0  0  3  0  0  0           0  0  0
    2.8417   -0.7417    0.0000 C   0  0  0  0  0  0           0  0  0
   -1.4458    0.0833    0.0000 C   0  0  0  0  0  0           0  0  0
    4.9875   -1.1542    0.0000 C   0  0  0  0  0  0           0  0  0
   -0.7375    1.3208    0.0000 C   0  0  0  0  0  0           0  0  0
   -0.0083   -3.2167    0.0000 C   0  0  0  0  0  0           0  0  0
   -0.7250   -1.9792    0.0000 C   0  0  0  0  0  0           0  0  0
    3.5625   -1.1542    0.0000 C   0  0  0  0  0  0           0  0  0
    4.2750   -0.7417    0.0000 C   0  0  0  0  0  0           0  0  0
   -0.0208    1.7333    0.0000 C   0  0  0  0  0  0           0  0  0
    0.6917    1.3208    0.0000 C   0  0  0  0  0  0           0  0  0
    1.4125    1.7333    0.0000 C   0  0  0  0  0  0           0  0  0
   -0.7250   -3.6292    0.0000 C   0  0  0  0  0  0           0  0  0
   -1.4375   -2.3917    0.0000 C   0  0  0  0  0  0           0  0  0
   -1.4375   -3.2167    0.0000 C   0  0  0  0  0  0           0  0  0
  2  1  1  0     0  0
  3  1  1  0     0  0
  4  2  1  0     0  0
  5  3  2  0     0  0
  6  3  1  0     0  0
  1  7  1  1     0  0
  8  4  2  0     0  0
  9  6  2  0     0  0
 10  5  1  0     0  0
 11 15  1  0     0  0
 12  7  1  0     0  0
 13  4  1  0     0  0
 14  9  1  0     0  0
 15 20  1  0     0  0
 16  9  1  0     0  0
 17 12  1  0     0  0
 18 12  1  0     0  0
 19 13  1  0     0  0
 20 19  1  0     0  0
 21 16  1  0     0  0
 22 21  1  0     0  0
 23 22  1  0     0  0
 24 17  1  0     0  0
 25 18  1  0     0  0
 26 25  1  0     0  0
 10 14  2  0     0  0
 26 24  1  0     0  0
M  END