
          11280715312D 1   1.00000     0.00000     0

 28 31  0     0  0            999 V2000
    1.7542   -2.5292    0.0000 C   0  0  0  0  0  0           0  0  0
    2.2375   -2.8792    0.0000 C   0  0  0  0  0  0           0  0  0
    2.1667   -3.4750    0.0000 C   0  0  0  0  0  0           0  0  0
    1.2042   -2.7667    0.0000 C   0  0  0  0  0  0           0  0  0
    1.8167   -1.9292    0.0000 C   0  0  0  0  0  0           0  0  0
    3.8250   -2.7500    0.0000 C   0  0  0  0  0  0           0  0  0
    4.3750   -2.5042    0.0000 C   0  0  0  0  0  0           0  0  0
    1.6250   -3.7167    0.0000 C   0  0  3  0  0  0           0  0  0
    6.5667   -1.5042    0.0000 C   0  0  0  0  0  0           0  0  0
    1.3792   -1.5250    0.0000 S   0  0  0  0  0  0           0  0  0
    2.6542   -3.8292    0.0000 C   0  0  0  0  0  0           0  0  0
    2.7792   -2.6375    0.0000 C   0  0  0  0  0  0           0  0  0
    1.1417   -3.3625    0.0000 C   0  0  0  0  0  0           0  0  0
    6.0167   -1.7542    0.0000 C   0  0  0  0  0  0           0  0  0
    2.3417   -1.6292    0.0000 C   0  0  0  0  0  0           0  0  0
    1.6250   -0.9750    0.0000 C   0  0  0  0  0  0           0  0  0
    3.2667   -2.9917    0.0000 C   0  0  0  0  0  0           0  0  0
    6.6292   -0.9042    0.0000 O   0  0  0  0  0  0           0  0  0
    2.2250   -1.0417    0.0000 C   0  0  0  0  0  0           0  0  0
    4.9167   -2.2542    0.0000 C   0  0  0  0  0  0           0  0  0
    5.9667   -2.3542    0.0000 C   0  0  0  0  0  0           0  0  0
    5.5292   -1.4042    0.0000 C   0  0  0  0  0  0           0  0  0
    3.2042   -3.5875    0.0000 C   0  0  0  0  0  0           0  0  0
    7.0625   -1.8542    0.0000 O   0  0  0  0  0  0           0  0  0
    4.9792   -1.6542    0.0000 C   0  0  0  0  0  0           0  0  0
    5.4125   -2.6125    0.0000 C   0  0  0  0  0  0           0  0  0
    1.1917   -4.1417    0.0000 C   0  0  0  0  0  0           0  0  0
    1.9250   -4.2417    0.0000 C   0  0  0  0  0  0           0  0  0
  2  1  1  0     0  0
  3  2  1  0     0  0
  4  1  2  0     0  0
  5  1  1  0     0  0
  6 17  1  0     0  0
  7  6  3  0     0  0
  8 13  1  0     0  0
  9 14  1  0     0  0
 10  5  1  0     0  0
 11  3  2  0     0  0
 12  2  2  0     0  0
 13  4  1  0     0  0
 14 21  2  0     0  0
 15  5  2  0     0  0
 16 10  1  0     0  0
 17 12  1  0     0  0
 18  9  2  0     0  0
 19 15  1  0     0  0
 20  7  1  0     0  0
 21 26  1  0     0  0
 22 25  2  0     0  0
 23 17  2  0     0  0
 24  9  1  0     0  0
 25 20  1  0     0  0
 26 20  2  0     0  0
 27  8  1  0     0  0
 28  8  1  0     0  0
 19 16  2  0     0  0
  3  8  1  0     0  0
 11 23  1  0     0  0
 22 14  1  0     0  0
M  END