
  SciTegic09261414462D

 23 26  0  0  0  0            999 V2000
    4.8890   -0.7633    0.0000 N   0  0
    4.8890   -1.5805    0.0000 C   0  0
    5.5939   -1.9891    0.0000 N   0  0
    5.5939   -2.8063    0.0000 C   0  0
    4.8890   -3.2149    0.0000 C   0  0
    4.1799   -2.8063    0.0000 C   0  0
    4.1799   -1.9891    0.0000 N   0  0
    1.3585   -3.4911    0.0000 O   0  0
    2.1757   -3.4911    0.0000 C   0  0  1  0  0  0
    2.5842   -4.2002    0.0000 C   0  0  2  0  0  0
    2.1757   -4.9051    0.0000 N   0  0
    1.3585   -4.9051    0.0000 C   0  0
    0.9499   -4.2002    0.0000 C   0  0
    3.4708   -3.2149    0.0000 N   0  0
    2.7235   -2.8846    0.0000 C   0  0
    3.3868   -4.0294    0.0000 C   0  0
    1.8454   -2.7438    0.0000 H   0  0
    3.0685   -4.8593    0.0000 H   0  0
    6.3030   -3.2149    0.0000 C   0  0
    7.0503   -2.8846    0.0000 C   0  0
    7.5982   -3.4911    0.0000 C   0  0
    7.1896   -4.2002    0.0000 C   0  0
    6.3870   -4.0294    0.0000 C   0  0
  2  3  1  0
  3  4  2  0
  4  5  1  0
  5  6  2  0
  6  7  1  0
  2  7  2  0
  1  2  1  0
  8  9  1  0
  9 10  1  0
 10 11  1  0
 11 12  1  0
 12 13  1  0
  8 13  1  0
 14 15  1  0
 14 16  1  0
  9 15  1  0
 10 16  1  0
  9 17  1  1
 10 18  1  6
  6 14  1  0
 19 20  1  0
 20 21  1  0
 21 22  1  0
 22 23  1  0
 19 23  1  0
  4 19  1  0
M  END