
  SciTegic06061310022D

 21 23  0  0  0  0            999 V2000
    7.2251   -4.1036    0.0000 C   0  0
    6.5169   -4.5268    0.0000 C   0  0
    6.5293   -5.3517    0.0000 C   0  0
    7.2498   -5.7534    0.0000 C   0  0
    7.9580   -5.3302    0.0000 C   0  0
    7.9457   -4.5053    0.0000 C   0  0
    8.6539   -4.0821    0.0000 F   0  0
    8.6786   -5.7319    0.0000 C   0  0  1  0  0  0
    9.3868   -5.3088    0.0000 O   0  0
    8.6910   -6.5568    0.0000 C   0  0
   10.1074   -5.7105    0.0000 C   0  0
   10.8156   -5.2873    0.0000 N   0  0
   10.1198   -6.5354    0.0000 O   0  0
   11.5362   -5.6890    0.0000 C   0  0  1  0  0  0
   12.3400   -5.3371    0.0000 C   0  0
   13.0786   -5.6694    0.0000 C   0  0
   13.2312   -6.4324    0.0000 C   0  0
   12.4827   -6.0855    0.0000 N   0  0
   11.6434   -6.4444    0.0000 C   0  0
   12.6224   -5.0469    0.0000 C   0  0
   12.3777   -4.4410    0.0000 C   0  0
  2  3  1  0
  9 11  1  0
  5  6  2  0
 11 12  1  0
  6  1  1  0
 11 13  2  0
  1  2  2  0
 14 12  1  1
 14 15  1  0
  6  7  1  0
  3  4  2  0
  5  8  1  0
  8  9  1  0
 14 19  1  0
 15 16  1  0
 16 17  1  0
 17 18  1  0
 18 19  1  0
  4  5  1  0
 18 20  1  0
  8 10  1  1
 20 21  1  0
 21 15  1  0
M  END