
  SciTegic01161211252D

 34 36  0  0  0  0            999 V2000
   14.2814   -7.6922    0.0000 C   0  0  1  0  0  0
   14.2784   -8.5214    0.0000 C   0  0
   14.9890   -8.9324    0.0000 N   0  0
   14.9904   -7.2815    0.0000 O   0  0
   15.7144   -6.0433    0.0000 C   0  0
   14.9910   -6.4537    0.0000 C   0  0
   16.3960   -9.7717    0.0000 C   0  0
   14.2787   -6.0384    0.0000 O   0  0
   15.6928   -8.5270    0.0000 C   0  0
   16.4081   -8.9485    0.0000 C   0  0  2  0  0  0
   17.1323   -8.5354    0.0000 C   0  0
   17.1360   -7.7081    0.0000 C   0  0
   15.6967   -7.7025    0.0000 O   0  0
   17.1039  -10.1943    0.0000 C   0  0
   17.0918  -11.0187    0.0000 N   0  0
   17.8240   -9.7926    0.0000 O   0  0
   17.7998  -11.4415    0.0000 C   0  0
   17.7877  -12.2659    0.0000 C   0  0
   17.0662  -12.6628    0.0000 C   0  0
   17.0538  -13.4865    0.0000 C   0  0
   17.7623  -13.9100    0.0000 C   0  0
   18.4847  -13.5039    0.0000 C   0  0
   18.4936  -12.6815    0.0000 C   0  0
   17.7513  -14.7345    0.0000 Cl  0  0
   17.8567   -7.2996    0.0000 C   0  0
   17.8608   -6.4731    0.0000 C   0  0
   17.1456   -6.0553    0.0000 C   0  0
   16.4248   -6.4702    0.0000 C   0  0
   13.5678   -7.2791    0.0000 C   0  0
   13.5721   -6.4576    0.0000 C   0  0
   12.8593   -6.0446    0.0000 C   0  0
   12.1438   -6.4562    0.0000 C   0  0
   12.1455   -7.2849    0.0000 C   0  0
   12.8589   -7.6942    0.0000 C   0  0
 15 17  1  0
  6  8  2  0
 17 18  1  0
 18 19  2  0
  1  2  1  0
 19 20  1  0
  9 10  1  0
 20 21  2  0
  1  4  1  0
 21 22  1  0
 10 11  1  0
 22 23  2  0
 23 18  1  0
  4  6  1  0
 21 24  1  0
 11 12  1  0
 12 25  2  0
 28  5  1  0
 25 26  1  0
  9 13  2  0
 26 27  1  0
  5  6  1  0
 27 28  1  0
  7 14  1  0
  1 29  1  6
  2  3  1  0
 29 30  2  0
 14 15  1  0
 30 31  1  0
 10  7  1  6
 31 32  2  0
 14 16  2  0
 32 33  1  0
  3  9  1  0
 33 34  2  0
 34 29  1  0
M  END