
  SciTegic09081514172D

 32 35  0  0  0  0            999 V2000
    1.2990   -0.7500    0.0000 C   0  0
    1.2990    0.7500    0.0000 C   0  0
    0.0000    1.5000    0.0000 C   0  0
   -1.2990    0.7500    0.0000 C   0  0
   -1.2990   -0.7500    0.0000 C   0  0
    0.0000   -1.5000    0.0000 C   0  0
   -2.5972   -1.5031    0.0000 C   0  0
   -2.5951   -3.0039    0.0000 C   0  0
   -3.8915   -3.7585    0.0000 C   0  0
   -3.8863   -5.2585    0.0000 C   0  0
   -2.5847   -6.0040    0.0000 C   0  0
   -1.2883   -5.2495    0.0000 C   0  0
   -1.2935   -3.7495    0.0000 C   0  0
   -2.5764   -7.5048    0.0000 O   0  0
   -3.6375   -0.9049    0.0000 O   0  0
   -1.2730   -8.2489    0.0000 C   0  0
   -1.2647   -9.7497    0.0000 C   0  0
    0.0387  -10.4937    0.0000 N   0  0
   -2.3008  -10.3551    0.0000 O   0  0
    0.0470  -11.9945    0.0000 C   0  0
    1.3486  -12.7401    0.0000 C   0  0
    1.3538  -14.2401    0.0000 C   0  0
    0.0574  -14.9946    0.0000 N   0  0
   -1.2443  -14.2491    0.0000 C   0  0
   -1.2495  -12.7491    0.0000 C   0  0
    0.0595  -16.4954    0.0000 C   0  0
   -1.2387  -17.2485    0.0000 C   0  0
   -1.2387  -18.7486    0.0000 C   0  0
   -2.5377  -19.4986    0.0000 C   0  0
   -3.8368  -18.7486    0.0000 C   0  0
   -3.8368  -17.2486    0.0000 C   0  0
   -2.5378  -16.4986    0.0000 C   0  0
  1  2  2  0
  2  3  1  0
  3  4  2  0
  4  5  1  0
  5  6  2  0
  6  1  1  0
  5  7  1  0
  7  8  1  0
  8  9  2  0
  9 10  1  0
 10 11  2  0
 11 12  1  0
 12 13  2  0
 13  8  1  0
 11 14  1  0
  7 15  2  0
 14 16  1  0
 16 17  1  0
 17 18  1  0
 17 19  2  0
 18 20  1  0
 20 21  1  0
 21 22  1  0
 22 23  1  0
 23 24  1  0
 24 25  1  0
 25 20  1  0
 23 26  1  0
 26 27  1  0
 27 28  2  0
 28 29  1  0
 29 30  2  0
 30 31  1  0
 31 32  2  0
 32 27  1  0
M  END