
  SciTegic03041510302D

 65 69  0  0  0  0            999 V2000
    6.4533  -11.7984    0.0000 C   0  0  2  0  0  0
    5.1183  -11.7571    0.0000 C   0  0
    5.7688  -12.2622    0.0000 S   0  0
    5.4003  -10.9851    0.0000 C   0  0  1  0  0  0
    6.2193  -11.0088    0.0000 C   0  0  2  0  0  0
    6.4939  -10.2364    0.0000 N   0  0
    5.8446   -9.7350    0.0000 C   0  0
    5.1696  -10.1987    0.0000 N   0  0
    7.1583  -12.2060    0.0000 C   0  0
    7.8714  -11.7932    0.0000 C   0  0
    8.5847  -12.2057    0.0000 C   0  0
    9.2978  -11.7927    0.0000 C   0  0
   10.0071  -12.2053    0.0000 C   0  0
   10.7202  -11.7924    0.0000 N   0  0
   10.0072  -13.0266    0.0000 O   0  0
   11.4335  -12.2050    0.0000 C   0  0
   12.1466  -11.7920    0.0000 C   0  0
   12.8600  -12.2045    0.0000 O   0  0
   13.5731  -11.7917    0.0000 C   0  0
   14.2822  -12.2041    0.0000 C   0  0
   14.9953  -11.7953    0.0000 O   0  0
   15.7088  -12.2038    0.0000 C   0  0
   16.4217  -11.7949    0.0000 C   0  0
   17.1351  -12.2033    0.0000 N   0  0
   16.4216  -10.9694    0.0000 O   0  0
   17.8441  -11.7946    0.0000 C   0  0
   18.5574  -12.2029    0.0000 C   0  0
   19.2705  -11.7941    0.0000 C   0  0
   19.9839  -12.2026    0.0000 C   0  0
   20.6970  -11.7938    0.0000 C   0  0  1  0  0  0
   21.4103  -12.2021    0.0000 C   0  0
   20.6967  -10.9684    0.0000 N   0  0
   21.4106  -13.0276    0.0000 O   0  0
   22.1192  -11.7934    0.0000 N   0  0
   19.9834  -10.5599    0.0000 C   0  0
   19.9831   -9.7345    0.0000 C   0  0
   19.2703  -10.9687    0.0000 O   0  0
   22.8326  -12.2018    0.0000 C   0  0
   23.5458  -11.7929    0.0000 C   0  0
   24.2590  -12.2014    0.0000 C   0  0
   24.9721  -11.7926    0.0000 N   0  0
   25.6813  -12.2009    0.0000 C   0  0
   26.3944  -11.7922    0.0000 C   0  0
   25.6816  -13.0264    0.0000 O   0  0
   20.6945   -9.3279    0.0000 C   0  0
   20.6948   -8.5078    0.0000 C   0  0
   19.9848   -8.0940    0.0000 C   0  0
   19.2682   -8.5094    0.0000 C   0  0
   19.2732   -9.3317    0.0000 C   0  0
   27.1070  -12.2032    0.0000 C   0  0
   27.8194  -11.7955    0.0000 C   0  0
   27.8198  -10.9687    0.0000 C   0  0
   26.3911  -10.9718    0.0000 C   0  0
   27.0993  -10.5618    0.0000 C   0  0
   27.0957   -9.7484    0.0000 N   0  0
   26.3890   -9.3435    0.0000 C   0  0
   25.6837   -9.7569    0.0000 C   0  0
   25.6885  -10.5682    0.0000 C   0  0
   28.5304  -10.5556    0.0000 O   0  0
   19.9830   -7.2672    0.0000 N   0  0
   19.9786   -6.4486    0.0000 N   0  3
   19.9723   -5.6231    0.0000 N   0  5
    5.8684   -8.9141    0.0000 O   0  0
    6.9276  -10.9970    0.0000 H   0  0
    4.7669  -10.9970    0.0000 H   0  0
  1  5  1  0
  4  2  1  0
  2  3  1  0
  3  1  1  0
  4  5  1  0
  5  6  1  0
  6  7  1  0
  7  8  1  0
  8  4  1  0
  1  9  1  6
  9 10  1  0
 10 11  1  0
 11 12  1  0
 12 13  1  0
 13 14  1  0
 13 15  2  0
 14 16  1  0
 16 17  1  0
 17 18  1  0
 18 19  1  0
 19 20  1  0
 20 21  1  0
 21 22  1  0
 22 23  1  0
 23 24  1  0
 23 25  2  0
 24 26  1  0
 26 27  1  0
 27 28  1  0
 28 29  1  0
 30 29  1  6
 30 31  1  0
 30 32  1  0
 31 33  2  0
 31 34  1  0
 32 35  1  0
 35 36  1  0
 35 37  2  0
 34 38  1  0
 38 39  1  0
 39 40  1  0
 40 41  1  0
 41 42  1  0
 42 43  1  0
 42 44  2  0
 36 45  2  0
 45 46  1  0
 46 47  2  0
 47 48  1  0
 48 49  2  0
 49 36  1  0
 43 50  2  0
 50 51  1  0
 51 52  2  0
 52 54  1  0
 53 43  1  0
 53 54  1  0
 54 55  2  0
 55 56  1  0
 56 57  2  0
 57 58  1  0
 58 53  2  0
 52 59  1  0
 47 60  1  0
 60 61  2  0
 61 62  2  0
  7 63  2  0
  5 64  1  1
  4 65  1  1
M  CHG  2  61   1  62  -1
M  END