
          11280715072D 1   1.00000     0.00000     0

 39 42  0     0  0            999 V2000
    0.5875    0.2833    0.0000 C   0  0  0  0  0  0           0  0  0
    7.7250    0.3708    0.0000 C   0  0  0  0  0  0           0  0  0
   -0.1208   -0.1417    0.0000 C   0  0  0  0  0  0           0  0  0
    8.4417   -0.0292    0.0000 C   0  0  0  0  0  0           0  0  0
    1.3125   -0.1167    0.0000 C   0  0  0  0  0  0           0  0  0
    7.0125   -0.0625    0.0000 C   0  0  0  0  0  0           0  0  0
   -0.1083   -0.9667    0.0000 C   0  0  0  0  0  0           0  0  0
    8.4625   -0.8542    0.0000 C   0  0  0  0  0  0           0  0  0
    1.3167   -0.9500    0.0000 C   0  0  0  0  0  0           0  0  0
    7.0375   -0.8917    0.0000 C   0  0  0  0  0  0           0  0  0
    7.7625   -1.2792    0.0000 C   0  0  0  0  0  0           0  0  0
    0.6125   -1.3667    0.0000 C   0  0  0  0  0  0           0  0  0
    0.5667    1.1083    0.0000 C   0  0  0  0  0  0           0  0  0
    7.7042    1.1958    0.0000 C   0  0  0  0  0  0           0  0  0
    7.9542   -2.0875    0.0000 O   0  0  0  0  0  0           0  0  0
    0.4500   -2.1792    0.0000 O   0  0  0  0  0  0           0  0  0
   -0.7125   -1.5250    0.0000 C   0  0  0  0  0  0           0  0  0
    9.0917   -1.3875    0.0000 C   0  0  0  0  0  0           0  0  0
   -0.3708   -2.2750    0.0000 C   0  0  0  0  0  0           0  0  0
    8.7750   -2.1500    0.0000 C   0  0  0  0  0  0           0  0  0
   -0.1500    1.5083    0.0000 O   0  0  0  0  0  0           0  0  0
    8.4125    1.6208    0.0000 O   0  0  0  0  0  0           0  0  0
    9.1500    0.4000    0.0000 O   0  0  0  0  0  0           0  0  0
   -0.8375    0.2625    0.0000 O   0  0  0  0  0  0           0  0  0
    2.0167    0.3000    0.0000 O   0  0  0  0  0  0           0  0  0
    6.3042    0.3583    0.0000 O   0  0  0  0  0  0           0  0  0
    2.0375   -1.3542    0.0000 O   0  0  0  0  0  0           0  0  0
    6.3375   -1.3167    0.0000 O   0  0  0  0  0  0           0  0  0
    4.1667   -0.0792    0.0000 O   0  0  0  0  0  0           0  0  0
    1.2792    1.5333    0.0000 C   0  0  0  0  0  0           0  0  0
    6.9792    1.5875    0.0000 C   0  0  0  0  0  0           0  0  0
    5.6000   -0.0625    0.0000 C   0  0  0  0  0  0           0  0  0
    2.7417   -0.1042    0.0000 C   0  0  0  0  0  0           0  0  0
    9.8667    0.0083    0.0000 C   0  0  0  0  0  0           0  0  0
   -1.5500   -0.1542    0.0000 C   0  0  0  0  0  0           0  0  0
    2.0417   -2.1792    0.0000 C   0  0  0  0  0  0           0  0  0
    6.3542   -2.1417    0.0000 C   0  0  0  0  0  0           0  0  0
    3.4500    0.3208    0.0000 C   0  0  0  0  0  0           0  0  0
    4.8792    0.3458    0.0000 C   0  0  0  0  0  0           0  0  0
  2  6  1  0     0  0
  3  1  2  0     0  0
  4  2  2  0     0  0
  5  1  1  0     0  0
  6 26  1  0     0  0
  7  3  1  0     0  0
  8 11  2  0     0  0
  9  5  2  0     0  0
 10  6  2  0     0  0
 11 10  1  0     0  0
 12  9  1  0     0  0
 13  1  1  0     0  0
 14  2  1  0     0  0
 15 11  1  0     0  0
 16 12  1  0     0  0
 17  7  1  0     0  0
 18  8  1  0     0  0
 19 17  2  0     0  0
 20 15  1  0     0  0
 21 13  2  0     0  0
 22 14  2  0     0  0
 23  4  1  0     0  0
 24  3  1  0     0  0
 25  5  1  0     0  0
 26 32  1  0     0  0
 27  9  1  0     0  0
 28 10  1  0     0  0
 29 38  1  0     0  0
 30 13  1  0     0  0
 31 14  1  0     0  0
 32 39  1  0     0  0
 33 25  1  0     0  0
 34 23  1  0     0  0
 35 24  1  0     0  0
 36 27  1  0     0  0
 37 28  1  0     0  0
 38 33  1  0     0  0
 39 29  1  0     0  0
 12  7  2  0     0  0
 16 19  1  0     0  0
  8  4  1  0     0  0
 20 18  2  0     0  0
M  END