
  SciTegic05071316162D

 17 18  0  0  0  0            999 V2000
   11.6291  -11.3209    0.0000 C   0  0
   11.6280  -12.1405    0.0000 C   0  0
   12.3360  -12.5495    0.0000 C   0  0
   13.0457  -12.1400    0.0000 C   0  0
   13.0428  -11.3174    0.0000 C   0  0
   12.3342  -10.9121    0.0000 C   0  0
   10.9213  -10.9125    0.0000 C   0  0  2  0  0  0
   10.2137  -11.3213    0.0000 C   0  0
    9.5059  -10.9129    0.0000 C   0  0
    8.7983  -11.3216    0.0000 N   0  0
    8.0523  -10.9855    0.0000 N   0  0
    7.5056  -11.5929    0.0000 C   0  0
    7.9144  -12.3006    0.0000 N   0  0
    8.7137  -12.1304    0.0000 C   0  0
   10.9211  -10.0953    0.0000 C   0  0
   11.6287   -9.6866    0.0000 C   0  0
   12.3365  -10.0950    0.0000 C   0  0
  1  2  2  0
  2  3  1  0
  3  4  2  0
  4  5  1  0
  5  6  2  0
  6  1  1  0
  1  7  1  0
  7  8  1  0
  8  9  1  0
  9 10  1  0
 10 11  1  0
 11 12  2  0
 12 13  1  0
 13 14  2  0
 14 10  1  0
  7 15  1  6
 15 16  1  0
 16 17  1  0
M  END