
  SciTegic02011310452D

 42 47  0  0  0  0            999 V2000
    7.4110  -11.7894    0.0000 C   0  0
    8.1338  -11.3916    0.0000 C   0  0
    7.3940  -12.6143    0.0000 O   0  0
    8.1471  -10.5681    0.0000 C   0  0
    8.8691  -10.1704    0.0000 C   0  0
    9.5760  -10.5976    0.0000 C   0  0
    9.5564  -11.4267    0.0000 C   0  0
    8.8338  -11.8207    0.0000 C   0  0
   10.2607  -11.8563    0.0000 N   0  0
   10.9850  -11.4611    0.0000 C   0  0
   11.6893  -11.8907    0.0000 C   0  0
   11.0048  -10.6362    0.0000 O   0  0
   13.0962  -12.7457    0.0000 C   0  0
   12.3670  -13.1406    0.0000 C   0  0
   11.6660  -12.7095    0.0000 C   0  0
   13.1156  -11.9200    0.0000 C   0  0
   12.4087  -11.4927    0.0000 C   0  0
   12.4263  -10.6687    0.0000 C   0  0
   13.1500  -10.2710    0.0000 C   0  0
   13.8576  -10.7034    0.0000 C   0  0
   13.8365  -11.5259    0.0000 C   0  0
    1.0095  -10.4413    0.0000 C   0  0
    0.9935  -11.2686    0.0000 C   0  0
    2.4366  -10.4633    0.0000 C   0  0
    1.7286  -10.0414    0.0000 C   0  0
    2.4246  -11.2938    0.0000 C   0  0
    1.7000  -11.6920    0.0000 C   0  0
    1.6837  -12.5169    0.0000 C   0  0
    2.3912  -12.9443    0.0000 C   0  0
    3.1165  -12.5410    0.0000 C   0  0
    3.1293  -11.7175    0.0000 C   0  0
    3.8507  -11.3169    0.0000 C   0  0
    4.5582  -11.7412    0.0000 N   0  0
    3.8644  -10.4919    0.0000 O   0  0
    5.2795  -11.3407    0.0000 C   0  0
    5.9848  -11.7674    0.0000 C   0  0
    6.7056  -11.3675    0.0000 C   0  0
    6.7198  -10.5416    0.0000 C   0  0
    6.0072  -10.1174    0.0000 C   0  0
    5.2893  -10.5197    0.0000 C   0  0
    4.5799  -10.0984    0.0000 O   0  0
   10.2994  -10.2008    0.0000 O   0  0
  1  2  1  0
  1  3  2  0
  2  4  2  0
  4  5  1  0
  5  6  2  0
  6  7  1  0
  7  8  2  0
  8  2  1  0
  7  9  1  0
  9 10  1  0
 10 11  1  0
 10 12  2  0
 11 17  2  0
 16 13  2  0
 13 14  1  0
 14 15  2  0
 15 11  1  0
 16 17  1  0
 17 18  1  0
 18 19  2  0
 19 20  1  0
 20 21  2  0
 21 16  1  0
 22 23  2  0
 23 27  1  0
 26 24  1  0
 24 25  2  0
 25 22  1  0
 26 27  1  0
 27 28  2  0
 28 29  1  0
 29 30  2  0
 30 31  1  0
 31 26  2  0
 31 32  1  0
 32 33  1  0
 32 34  2  0
 33 35  1  0
 35 36  2  0
 36 37  1  0
 37 38  2  0
 38 39  1  0
 39 40  2  0
 40 35  1  0
 40 41  1  0
 37  1  1  0
  6 42  1  0
M  END