
  Mrv0541 05211314572D          

141150  0  0  0  0            999 V2000
    5.4961   -5.1764    0.0000 N   0  0  0  0  0  0  0  0  0  0  0  0
    5.5823   -5.9969    0.0000 N   0  0  0  0  0  0  0  0  0  0  0  0
    6.3893   -6.1684    0.0000 N   0  0  0  0  0  0  0  0  0  0  0  0
    6.8018   -5.4540    0.0000 C   0  0  0  0  0  0  0  0  0  0  0  0
    6.2498   -4.8409    0.0000 C   0  0  0  0  0  0  0  0  0  0  0  0
    7.6223   -5.3677    0.0000 C   0  0  0  0  0  0  0  0  0  0  0  0
    8.1072   -6.0352    0.0000 N   0  0  0  0  0  0  0  0  0  0  0  0
    2.6382   -3.5264    0.0000 C   0  0  0  0  0  0  0  0  0  0  0  0
    1.9238   -3.9389    0.0000 C   0  0  0  0  0  0  0  0  0  0  0  0
    3.3527   -3.9389    0.0000 N   0  0  0  0  0  0  0  0  0  0  0  0
    2.6382   -2.7014    0.0000 O   0  0  0  0  0  0  0  0  0  0  0  0
    1.9238   -4.7639    0.0000 N   0  0  0  0  0  0  0  0  0  0  0  0
    1.2093   -5.1764    0.0000 C   0  0  0  0  0  0  0  0  0  0  0  0
    2.6382   -5.1764    0.0000 C   0  0  0  0  0  0  0  0  0  0  0  0
    3.3527   -4.7639    0.0000 C   0  0  0  0  0  0  0  0  0  0  0  0
    4.0672   -5.1764    0.0000 C   0  0  0  0  0  0  0  0  0  0  0  0
    4.7816   -4.7639    0.0000 C   0  0  0  0  0  0  0  0  0  0  0  0
    8.9277   -5.9489    0.0000 C   0  0  0  0  0  0  0  0  0  0  0  0
    9.4126   -6.6164    0.0000 C   0  0  0  0  0  0  0  0  0  0  0  0
   10.2331   -6.5301    0.0000 N   0  0  0  0  0  0  0  0  0  0  0  0
    9.0771   -7.3700    0.0000 O   0  0  0  0  0  0  0  0  0  0  0  0
   10.5687   -5.7765    0.0000 C   0  0  0  0  0  0  0  0  0  0  0  0
   10.0837   -5.1090    0.0000 C   0  0  0  0  0  0  0  0  0  0  0  0
   10.7180   -7.1976    0.0000 C   0  0  0  0  0  0  0  0  0  0  0  0
   11.5385   -7.1113    0.0000 C   0  0  0  0  0  0  0  0  0  0  0  0
   12.0234   -7.7788    0.0000 N   0  0  0  0  0  0  0  0  0  0  0  0
   11.8741   -6.3577    0.0000 O   0  0  0  0  0  0  0  0  0  0  0  0
   12.8439   -7.6925    0.0000 C   0  0  0  0  0  0  0  0  0  0  0  0
   11.6879   -8.5325    0.0000 C   0  0  0  0  0  0  0  0  0  0  0  0
   10.8674   -8.6187    0.0000 C   0  0  0  0  0  0  0  0  0  0  0  0
   13.3288   -8.3600    0.0000 C   0  0  0  0  0  0  0  0  0  0  0  0
   14.1493   -8.2737    0.0000 N   0  0  0  0  0  0  0  0  0  0  0  0
   12.9933   -9.1137    0.0000 O   0  0  0  0  0  0  0  0  0  0  0  0
   14.4849   -7.5201    0.0000 C   0  0  0  0  0  0  0  0  0  0  0  0
   14.0000   -6.8526    0.0000 C   0  0  0  0  0  0  0  0  0  0  0  0
   14.6342   -8.9412    0.0000 C   0  0  0  0  0  0  0  0  0  0  0  0
   15.4547   -8.8549    0.0000 C   0  0  0  0  0  0  0  0  0  0  0  0
   15.9396   -9.5224    0.0000 N   0  0  0  0  0  0  0  0  0  0  0  0
   15.7903   -8.1013    0.0000 O   0  0  0  0  0  0  0  0  0  0  0  0
   16.7601   -9.4361    0.0000 C   0  0  0  0  0  0  0  0  0  0  0  0
   15.6041  -10.2761    0.0000 C   0  0  0  0  0  0  0  0  0  0  0  0
   14.7836  -10.3623    0.0000 C   0  0  0  0  0  0  0  0  0  0  0  0
   14.3711  -11.0768    0.0000 O   0  0  0  0  0  0  0  0  0  0  0  0
   13.5641  -10.9052    0.0000 C   0  0  0  0  0  0  0  0  0  0  0  0
   13.4779  -10.0848    0.0000 C   0  0  0  0  0  0  0  0  0  0  0  0
   14.2316   -9.7492    0.0000 C   0  0  0  0  0  0  0  0  0  0  0  0
   17.2450  -10.1036    0.0000 C   0  0  0  0  0  0  0  0  0  0  0  0
   18.0655  -10.0174    0.0000 N   0  0  0  0  0  0  0  0  0  0  0  0
   16.9095  -10.8573    0.0000 O   0  0  0  0  0  0  0  0  0  0  0  0
   18.4011   -9.2637    0.0000 C   0  0  0  0  0  0  0  0  0  0  0  0
   17.9162   -8.5962    0.0000 C   0  0  0  0  0  0  0  0  0  0  0  0
   18.2517   -7.8426    0.0000 C   0  0  0  0  0  0  0  0  0  0  0  0
   18.5504  -10.6848    0.0000 C   0  0  0  0  0  0  0  0  0  0  0  0
   19.3709  -10.5986    0.0000 C   0  0  0  0  0  0  0  0  0  0  0  0
   19.8559  -11.2660    0.0000 N   0  0  0  0  0  0  0  0  0  0  0  0
   19.7065   -9.8449    0.0000 O   0  0  0  0  0  0  0  0  0  0  0  0
   20.6763  -11.1798    0.0000 C   0  0  0  0  0  0  0  0  0  0  0  0
   19.5203  -12.0197    0.0000 C   0  0  0  0  0  0  0  0  0  0  0  0
   18.6998  -12.1059    0.0000 C   0  0  0  0  0  0  0  0  0  0  0  0
   21.1613  -11.8472    0.0000 C   0  0  0  0  0  0  0  0  0  0  0  0
   21.9817  -11.7610    0.0000 N   0  0  0  0  0  0  0  0  0  0  0  0
   20.8257  -12.6009    0.0000 O   0  0  0  0  0  0  0  0  0  0  0  0
    0.4948   -4.7639    0.0000 C   0  0  0  0  0  0  0  0  0  0  0  0
    1.2093   -6.0014    0.0000 O   0  0  0  0  0  0  0  0  0  0  0  0
   -0.2197   -5.1764    0.0000 N   0  0  0  0  0  0  0  0  0  0  0  0
   -0.9341   -4.7639    0.0000 C   0  0  0  0  0  0  0  0  0  0  0  0
   -0.2197   -6.0014    0.0000 C   0  0  0  0  0  0  0  0  0  0  0  0
   -0.9341   -6.4139    0.0000 C   0  0  0  0  0  0  0  0  0  0  0  0
   -1.6486   -6.0014    0.0000 C   0  0  0  0  0  0  0  0  0  0  0  0
   -2.3631   -6.4139    0.0000 C   0  0  0  0  0  0  0  0  0  0  0  0
   -0.9341   -7.2389    0.0000 C   0  0  0  0  0  0  0  0  0  0  0  0
   -1.6486   -7.6514    0.0000 C   0  0  0  0  0  0  0  0  0  0  0  0
   -2.3631   -7.2389    0.0000 C   0  0  0  0  0  0  0  0  0  0  0  0
   -2.9762   -7.7910    0.0000 O   0  0  0  0  0  0  0  0  0  0  0  0
   -2.6406   -8.5446    0.0000 C   0  0  0  0  0  0  0  0  0  0  0  0
   -1.8201   -8.4584    0.0000 O   0  0  0  0  0  0  0  0  0  0  0  0
   -0.9341   -3.9389    0.0000 O   0  0  0  0  0  0  0  0  0  0  0  0
   -1.6486   -5.1764    0.0000 C   0  0  0  0  0  0  0  0  0  0  0  0
   -2.3631   -4.7639    0.0000 N   0  0  0  0  0  0  0  0  0  0  0  0
   -3.0775   -5.1764    0.0000 C   0  0  0  0  0  0  0  0  0  0  0  0
   -2.3631   -3.9389    0.0000 C   0  0  0  0  0  0  0  0  0  0  0  0
   -3.0775   -3.5264    0.0000 C   0  0  0  0  0  0  0  0  0  0  0  0
   -3.0775   -2.7014    0.0000 C   0  0  0  0  0  0  0  0  0  0  0  0
   -3.7920   -2.2889    0.0000 C   0  0  0  0  0  0  0  0  0  0  0  0
   -3.7920   -1.4639    0.0000 N   0  0  0  0  0  0  0  0  0  0  0  0
   -3.7920   -4.7639    0.0000 C   0  0  0  0  0  0  0  0  0  0  0  0
   -3.0775   -6.0014    0.0000 O   0  0  0  0  0  0  0  0  0  0  0  0
   -4.5065   -5.1764    0.0000 N   0  0  0  0  0  0  0  0  0  0  0  0
   -5.2210   -4.7639    0.0000 C   0  0  0  0  0  0  0  0  0  0  0  0
   -4.5065   -6.0014    0.0000 C   0  0  0  0  0  0  0  0  0  0  0  0
   -5.2210   -6.4139    0.0000 C   0  0  0  0  0  0  0  0  0  0  0  0
   -5.9354   -6.0014    0.0000 C   0  0  0  0  0  0  0  0  0  0  0  0
   -6.6499   -6.4139    0.0000 C   0  0  0  0  0  0  0  0  0  0  0  0
   -5.2210   -7.2389    0.0000 C   0  0  0  0  0  0  0  0  0  0  0  0
   -5.9354   -7.6514    0.0000 C   0  0  0  0  0  0  0  0  0  0  0  0
   -6.6499   -7.2389    0.0000 C   0  0  0  0  0  0  0  0  0  0  0  0
   -7.2630   -7.7910    0.0000 O   0  0  0  0  0  0  0  0  0  0  0  0
   -6.9274   -8.5446    0.0000 C   0  0  0  0  0  0  0  0  0  0  0  0
   -6.1070   -8.4584    0.0000 O   0  0  0  0  0  0  0  0  0  0  0  0
   -5.2210   -3.9389    0.0000 O   0  0  0  0  0  0  0  0  0  0  0  0
   -5.9354   -5.1764    0.0000 C   0  0  0  0  0  0  0  0  0  0  0  0
   -6.6499   -4.7639    0.0000 N   0  0  0  0  0  0  0  0  0  0  0  0
   -7.3644   -5.1764    0.0000 C   0  0  0  0  0  0  0  0  0  0  0  0
   -6.6499   -3.9389    0.0000 C   0  0  0  0  0  0  0  0  0  0  0  0
   -7.3644   -3.5264    0.0000 C   0  0  0  0  0  0  0  0  0  0  0  0
   -8.0788   -3.9389    0.0000 C   0  0  0  0  0  0  0  0  0  0  0  0
   -8.0788   -4.7639    0.0000 C   0  0  0  0  0  0  0  0  0  0  0  0
   -7.3644   -6.0014    0.0000 O   0  0  0  0  0  0  0  0  0  0  0  0
   -7.3644   -2.7014    0.0000 C   0  0  0  0  0  0  0  0  0  0  0  0
   -8.7933   -5.1764    0.0000 N   0  0  0  0  0  0  0  0  0  0  0  0
   -9.5078   -4.7639    0.0000 C   0  0  0  0  0  0  0  0  0  0  0  0
   -8.7933   -6.0014    0.0000 C   0  0  0  0  0  0  0  0  0  0  0  0
   -8.0788   -6.4139    0.0000 C   0  0  0  0  0  0  0  0  0  0  0  0
   -8.0788   -7.2389    0.0000 C   0  0  0  0  0  0  0  0  0  0  0  0
   -7.7433   -7.9926    0.0000 C   0  0  0  0  0  0  0  0  0  0  0  0
   -8.2282   -8.6600    0.0000 N   0  0  0  0  0  0  0  0  0  0  0  0
   -9.5078   -3.9389    0.0000 O   0  0  0  0  0  0  0  0  0  0  0  0
  -10.2222   -5.1764    0.0000 C   0  0  0  0  0  0  0  0  0  0  0  0
  -10.9367   -4.7639    0.0000 N   0  0  0  0  0  0  0  0  0  0  0  0
  -11.6512   -5.1764    0.0000 C   0  0  0  0  0  0  0  0  0  0  0  0
  -12.3657   -4.7639    0.0000 C   0  0  0  0  0  0  0  0  0  0  0  0
  -13.0801   -5.1764    0.0000 C   0  0  0  0  0  0  0  0  0  0  0  0
  -13.0801   -3.5264    0.0000 C   0  0  0  0  0  0  0  0  0  0  0  0
  -12.3657   -3.9389    0.0000 C   0  0  0  0  0  0  0  0  0  0  0  0
  -13.7946   -3.9389    0.0000 C   0  0  0  0  0  0  0  0  0  0  0  0
  -13.7946   -4.7639    0.0000 C   0  0  0  0  0  0  0  0  0  0  0  0
  -14.5792   -5.0189    0.0000 O   0  0  0  0  0  0  0  0  0  0  0  0
  -15.0641   -4.3514    0.0000 C   0  0  0  0  0  0  0  0  0  0  0  0
  -14.5792   -3.6840    0.0000 O   0  0  0  0  0  0  0  0  0  0  0  0
    9.2633   -5.1953    0.0000 C   0  0  0  0  0  0  0  0  0  0  0  0
   10.4193   -4.3553    0.0000 C   0  0  0  0  0  0  0  0  0  0  0  0
   10.4549   -9.3332    0.0000 C   0  0  0  0  0  0  0  0  0  0  0  0
    9.6479   -9.1616    0.0000 C   0  0  0  0  0  0  0  0  0  0  0  0
    9.5617   -8.3412    0.0000 C   0  0  0  0  0  0  0  0  0  0  0  0
   10.3154   -8.0056    0.0000 O   0  0  0  0  0  0  0  0  0  0  0  0
   13.1750   -6.8526    0.0000 C   0  0  0  0  0  0  0  0  0  0  0  0
   12.9200   -6.0680    0.0000 C   0  0  0  0  0  0  0  0  0  0  0  0
   13.5875   -5.5831    0.0000 C   0  0  0  0  0  0  0  0  0  0  0  0
   14.2549   -6.0680    0.0000 O   0  0  0  0  0  0  0  0  0  0  0  0
   18.3643  -12.8596    0.0000 C   0  0  0  0  0  0  0  0  0  0  0  0
   18.2149  -11.4385    0.0000 C   0  0  0  0  0  0  0  0  0  0  0  0
 69 70  1  0  0  0  0
 70 73  2  0  0  0  0
 34 35  1  0  0  0  0
 72 71  2  0  0  0  0
 71 68  1  0  0  0  0
 72 73  1  0  0  0  0
  8  9  1  0  0  0  0
 32 36  1  0  0  0  0
  7 18  1  0  0  0  0
 36 37  1  0  0  0  0
  4  5  2  0  0  0  0
 73 74  1  0  0  0  0
 74 75  1  0  0  0  0
 75 76  1  0  0  0  0
 76 72  1  0  0  0  0
 37 38  1  0  0  0  0
 66 77  2  0  0  0  0
 18 19  1  0  0  0  0
 66 78  1  0  0  0  0
 37 39  2  0  0  0  0
 78 79  1  0  0  0  0
  8 10  1  0  0  0  0
 79 80  1  0  0  0  0
 38 40  1  0  0  0  0
 79 81  1  0  0  0  0
 19 20  1  0  0  0  0
 81 82  1  0  0  0  0
 38 41  1  0  0  0  0
 82 83  1  0  0  0  0
  5  1  1  0  0  0  0
 83 84  1  0  0  0  0
 41 42  1  0  0  0  0
 84 85  1  0  0  0  0
 42 43  1  0  0  0  0
 80 86  1  0  0  0  0
 19 21  2  0  0  0  0
 80 87  2  0  0  0  0
  8 11  2  0  0  0  0
 86 88  1  0  0  0  0
 20 22  1  0  0  0  0
 88 89  1  0  0  0  0
 88 90  1  0  0  0  0
 43 44  1  0  0  0  0
 90 91  1  0  0  0  0
 44 45  2  0  0  0  0
 91 92  2  0  0  0  0
 45 46  1  0  0  0  0
 92 93  1  0  0  0  0
 93 96  2  0  0  0  0
 46 42  2  0  0  0  0
 95 94  2  0  0  0  0
 94 91  1  0  0  0  0
 95 96  1  0  0  0  0
 22 23  1  0  0  0  0
 40 47  1  0  0  0  0
  9 12  1  0  0  0  0
 47 48  1  0  0  0  0
 20 24  1  0  0  0  0
 96 97  1  0  0  0  0
 97 98  1  0  0  0  0
 98 99  1  0  0  0  0
 99 95  1  0  0  0  0
 47 49  2  0  0  0  0
 89100  2  0  0  0  0
  4  6  1  0  0  0  0
 89101  1  0  0  0  0
 48 50  1  0  0  0  0
101102  1  0  0  0  0
 24 25  1  0  0  0  0
102103  1  0  0  0  0
 50 51  1  0  0  0  0
102104  1  0  0  0  0
 12 13  1  0  0  0  0
104105  1  0  0  0  0
 51 52  2  0  0  0  0
105106  1  0  0  0  0
105109  1  0  0  0  0
 25 26  1  0  0  0  0
103107  1  0  0  0  0
 48 53  1  0  0  0  0
103108  2  0  0  0  0
  1  2  1  0  0  0  0
 53 54  1  0  0  0  0
107110  1  0  0  0  0
 25 27  2  0  0  0  0
110111  1  0  0  0  0
 54 55  1  0  0  0  0
110112  1  0  0  0  0
 12 14  1  0  0  0  0
112113  1  0  0  0  0
 54 56  2  0  0  0  0
113114  1  0  0  0  0
 26 28  1  0  0  0  0
114115  1  0  0  0  0
 55 57  1  0  0  0  0
115116  1  0  0  0  0
  6  7  1  0  0  0  0
111117  2  0  0  0  0
 55 58  1  0  0  0  0
111118  1  0  0  0  0
 26 29  1  0  0  0  0
118119  1  0  0  0  0
 58 59  1  0  0  0  0
119120  1  0  0  0  0
 14 15  1  0  0  0  0
120121  1  0  0  0  0
 57 60  1  0  0  0  0
121122  2  0  0  0  0
122126  1  0  0  0  0
 29 30  1  0  0  0  0
125123  1  0  0  0  0
 60 61  1  0  0  0  0
123124  2  0  0  0  0
124121  1  0  0  0  0
125126  2  0  0  0  0
  2  3  2  0  0  0  0
 60 62  2  0  0  0  0
 28 31  1  0  0  0  0
 13 63  1  0  0  0  0
 15 16  1  0  0  0  0
126127  1  0  0  0  0
127128  1  0  0  0  0
128129  1  0  0  0  0
129125  1  0  0  0  0
 13 64  2  0  0  0  0
 23130  1  0  0  0  0
 31 32  1  0  0  0  0
 23131  1  0  0  0  0
 30132  2  0  0  0  0
 63 65  1  0  0  0  0
  3  4  1  0  0  0  0
 65 66  1  0  0  0  0
 31 33  2  0  0  0  0
132133  1  0  0  0  0
133134  2  0  0  0  0
134135  1  0  0  0  0
135 30  1  0  0  0  0
 35136  2  0  0  0  0
 65 67  1  0  0  0  0
 16 17  1  0  0  0  0
 67 68  1  0  0  0  0
 32 34  1  0  0  0  0
136137  1  0  0  0  0
137138  2  0  0  0  0
138139  1  0  0  0  0
139 35  1  0  0  0  0
 68 69  2  0  0  0  0
 59140  1  0  0  0  0
 17  1  1  0  0  0  0
 59141  1  0  0  0  0
M  END