
  SciTegic09261414532D

 32 34  0  0  0  0            999 V2000
    7.0883  -13.1548    0.0000 C   0  0
    7.0891  -13.9816    0.0000 C   0  0
    7.8044  -14.3925    0.0000 N   0  0
    8.5195  -13.9778    0.0000 C   0  0
    8.5146  -13.1478    0.0000 C   0  0
    7.7988  -12.7406    0.0000 C   0  0
    9.2356  -14.3876    0.0000 C   0  0
    9.2266  -12.7310    0.0000 C   0  0  1  0  0  0
    9.9436  -13.1391    0.0000 C   0  0
   10.6555  -12.7223    0.0000 O   0  0
    9.9486  -13.9641    0.0000 O   0  0
    9.2216  -11.9060    0.0000 O   0  0
    9.9336  -11.4891    0.0000 C   0  0
    9.9285  -10.6641    0.0000 C   0  0
   10.6506  -11.8973    0.0000 C   0  0
   10.6459  -11.0709    0.0000 C   0  0
    7.7944  -11.9156    0.0000 C   0  0
    8.5078  -11.5051    0.0000 C   0  0
    7.0795  -11.5149    0.0000 C   0  0
    7.0720  -10.6920    0.0000 C   0  0
    6.3753  -14.3951    0.0000 C   0  0
    6.3729  -12.7441    0.0000 C   0  0
    5.6637  -13.9823    0.0000 C   0  0
    4.9504  -14.3952    0.0000 C   0  0
    4.9512  -15.2212    0.0000 C   0  0
    5.6713  -15.6324    0.0000 C   0  0
    6.3817  -15.2171    0.0000 C   0  0
    4.2354  -13.9834    0.0000 C   0  0
    4.2378  -15.6357    0.0000 C   0  0
    7.7920  -10.2722    0.0000 C   0  0
    8.5003  -10.6834    0.0000 C   0  0
    7.7901   -9.4555    0.0000 Cl  0  0
  1  2  2  0
  2  3  1  0
  3  4  2  0
  4  5  1  0
  5  6  2  0
  6  1  1  0
  4  7  1  0
  5  8  1  0
  8  9  1  0
  9 10  1  0
  9 11  2  0
  8 12  1  6
 12 13  1  0
 13 14  1  0
 13 15  1  0
 13 16  1  0
  6 17  1  0
 17 18  2  0
 18 31  1  0
 20 19  2  0
 19 17  1  0
 20 30  1  0
  2 21  1  0
  1 22  1  0
 21 23  2  0
 23 24  1  0
 24 25  2  0
 25 26  1  0
 26 27  2  0
 27 21  1  0
 24 28  1  0
 25 29  1  0
 30 31  2  0
 30 32  1  0
M  END