
  SciTegic09261414482D

 71 73  0  0  0  0            999 V2000
    9.8880  -21.1481    0.0000 S   0  0
   10.5975  -20.7337    0.0000 S   0  0
    6.2783  -20.5042    0.0000 O   0  0
    7.0289  -21.1481    0.0000 O   0  0
    4.9060  -17.1856    0.0000 O   0  0
    7.0289  -21.9767    0.0000 O   0  0
   10.5975  -25.6848    0.0000 O   0  0
    7.7426  -24.8603    0.0000 O   0  0
   13.4567  -24.8603    0.0000 O   0  0
    6.3194  -22.3869    0.0000 O   0  0
   12.7430  -21.9767    0.0000 O   0  0
    2.7253  -19.2056    0.0000 O   0  0
    9.1744  -27.3336    0.0000 O   0  0
    7.7426  -19.9091    0.0000 N   0  0
   12.0293  -24.8603    0.0000 N   0  0
    7.0758  -19.4299    0.0000 C   0  0  1  0  0  0
    7.3325  -18.6390    0.0000 C   0  0
    8.1569  -18.6390    0.0000 C   0  0
    8.4137  -19.4299    0.0000 C   0  0
    6.2964  -19.6822    0.0000 C   0  0
    7.7426  -20.7337    0.0000 C   0  0
    8.4605  -21.1481    0.0000 C   0  0  2  0  0  0
    5.5970  -18.4365    0.0000 C   0  0  1  0  0  0
    6.3224  -18.0299    0.0000 C   0  0
    9.1743  -20.7337    0.0000 C   0  0
    6.3171  -17.2078    0.0000 C   0  0
    4.8919  -18.0076    0.0000 C   0  0
    7.7426  -22.3869    0.0000 C   0  0
    7.7426  -23.2113    0.0000 C   0  0  2  0  0  0
   11.3198  -25.7608    0.0000 C   0  0  2  0  0  0
   11.3198  -24.4502    0.0000 C   0  0  1  0  0  0
    7.0255  -16.7927    0.0000 C   0  0
    5.5980  -16.7999    0.0000 C   0  0
    9.1744  -24.8603    0.0000 C   0  0  2  0  0  0
   12.0293  -26.1794    0.0000 C   0  0
    7.0289  -23.6256    0.0000 C   0  0
   10.5975  -24.8603    0.0000 C   0  0
    8.4605  -24.4502    0.0000 C   0  0
   10.3822  -26.3020    0.0000 C   0  0
    9.1744  -25.6848    0.0000 C   0  0
   12.7430  -23.6256    0.0000 C   0  0  2  0  0  0
   12.7430  -24.4502    0.0000 C   0  0
    3.4614  -17.9853    0.0000 C   0  0
   12.0293  -27.0081    0.0000 C   0  0
    8.4607  -26.0992    0.0000 C   0  0
   13.4567  -23.2113    0.0000 C   0  0
   11.3198  -21.1481    0.0000 C   0  0
   11.3198  -21.9767    0.0000 C   0  0
    6.3194  -23.2113    0.0000 C   0  0
   12.0293  -22.3869    0.0000 C   0  0
   14.1704  -23.6256    0.0000 C   0  0
    2.7392  -18.3836    0.0000 C   0  0
    8.4607  -26.9235    0.0000 C   0  0
   14.8885  -23.2113    0.0000 C   0  0
   14.1705  -24.4502    0.0000 C   0  0
   15.5979  -23.6256    0.0000 C   0  0
   14.8885  -24.8603    0.0000 C   0  0
   15.5979  -24.4502    0.0000 C   0  0
   16.3160  -24.8603    0.0000 O   0  0
    9.8880  -24.4502    0.0000 N   0  0
    8.4605  -21.9767    0.0000 N   0  0
   12.0293  -23.2113    0.0000 N   0  0
    4.1697  -18.4102    0.0000 N   0  0
    5.6014  -23.6256    0.0000 N   0  0
    5.5831  -19.2585    0.0000 N   0  0
    2.0342  -17.9589    0.0000 N   0  0
    8.4605  -23.6256    0.0000 N   0  0
    7.7428  -27.3336    0.0000 N   0  0
   10.5912  -24.0278    0.0000 H   0  0
   14.8907  -25.6974    0.0000 Br  0  0
   16.3241  -23.2089    0.0000 Br  0  0
 10 49  2  0
 11 50  2  0
 12 52  2  0
 13 53  2  0
 59 58  1  0
 14 16  1  0
 14 19  1  0
 14 21  1  0
 65 20  1  0
 23 65  1  6
 61 22  1  0
 61 28  1  0
 63 27  1  0
 63 43  1  0
 67 29  1  0
 67 38  1  0
 31 15  1  0
 15 42  1  0
 60 34  1  0
 60 37  1  0
 62 41  1  0
 62 50  1  0
 64 49  1  0
 66 52  1  0
 68 53  1  0
 16 17  1  0
 16 20  1  6
 17 18  1  0
 18 19  1  0
 22 21  1  6
 22 25  1  0
 23 24  1  0
 23 27  1  0
 24 26  1  0
 26 32  1  0
 26 33  1  0
 28 29  1  0
 29 36  1  1
 30 31  1  0
 30 35  1  0
 30 39  1  6
 31 37  1  0
 34 38  1  0
 34 40  1  1
 35 44  1  0
 36 49  1  0
 40 45  1  0
 41 42  1  0
 41 46  1  1
 43 52  1  0
 45 53  1  0
 46 51  1  0
 47 48  1  0
 48 50  1  0
 51 54  2  0
 51 55  1  0
 54 56  1  0
 55 57  2  0
 56 58  2  0
 57 58  1  0
  1  2  1  0
  1 25  1  0
  2 47  1  0
  3 20  2  0
  4 21  2  0
  5 27  2  0
  6 28  2  0
  7 37  2  0
  8 38  2  0
  9 42  2  0
 31 69  1  6
 57 70  1  0
 56 71  1  0
M  END