
  SciTegic06051313522D

 24 26  0  0  0  0            999 V2000
    6.0919   -4.1659    0.0000 S   0  0
    6.7986   -4.5933    0.0000 N   0  0
    7.5214   -4.1959    0.0000 C   0  0
    8.2281   -4.6231    0.0000 C   0  0
    8.9509   -4.2257    0.0000 C   0  0
    8.9670   -3.4009    0.0000 C   0  0
    8.2604   -2.9736    0.0000 C   0  0
    7.5376   -3.3711    0.0000 N   0  0
    8.2118   -5.4479    0.0000 C   0  0
    8.9184   -5.8751    0.0000 N   0  0
    8.1611   -7.9255    0.0000 C   0  0
    8.8677   -8.3529    0.0000 N   0  0
    9.5906   -7.9554    0.0000 C   0  0
    9.6068   -7.1307    0.0000 C   0  0
    8.9001   -6.7034    0.0000 C   0  0
    8.1774   -7.1009    0.0000 N   0  0
   10.3696   -8.2250    0.0000 N   0  0
   10.3949   -6.8893    0.0000 C   0  0
   10.8691   -7.5665    0.0000 C   0  0
   11.6937   -7.5826    0.0000 C   0  0
    6.7802   -5.4216    0.0000 C   0  0
    5.3685   -4.5643    0.0000 C   0  0
    5.6720   -3.4449    0.0000 O   0  0
    6.4978   -3.4449    0.0000 O   0  0
  1  2  1  0
  3  4  1  0
  4  5  2  0
  5  6  1  0
  6  7  2  0
  7  8  1  0
  3  8  2  0
 11 12  1  0
 12 13  2  0
 13 14  1  0
 14 15  2  0
 15 16  1  0
 11 16  2  0
 18 19  2  0
 17 19  1  0
 13 17  1  0
 14 18  1  0
 19 20  1  0
 10 15  1  0
  9 10  1  0
  4  9  1  0
  2  3  1  0
  2 21  1  0
  1 22  1  0
  1 23  2  0
  1 24  2  0
M  END