
          08180812492D 1   1.00000     0.00000     0

 30 33  0     0  0            999 V2000
   -0.4056   -1.0375    0.0000 C   0  0  0  0  0  0           0  0  0
   -0.4068   -1.8648    0.0000 C   0  0  0  0  0  0           0  0  0
    0.3081   -2.2777    0.0000 C   0  0  0  0  0  0           0  0  0
    1.0245   -1.8644    0.0000 C   0  0  0  0  0  0           0  0  0
    1.0216   -1.0338    0.0000 C   0  0  0  0  0  0           0  0  0
    0.3063   -0.6247    0.0000 C   0  0  0  0  0  0           0  0  0
   -1.1214   -2.2765    0.0000 C   0  0  0  0  0  0           0  0  0
   -1.8639   -1.9169    0.0000 N   0  0  3  0  0  0           0  0  0
   -1.1222   -3.1018    0.0000 O   0  0  0  0  0  0           0  0  0
    1.7346   -0.6186    0.0000 O   0  0  0  0  0  0           0  0  0
    1.7314    0.2064    0.0000 C   0  0  0  0  0  0           0  0  0
    2.4461    0.6167    0.0000 C   0  0  0  0  0  0           0  0  0
    2.4434    1.4409    0.0000 C   0  0  0  0  0  0           0  0  0
    1.7268    1.8516    0.0000 C   0  0  0  0  0  0           0  0  0
    1.0115    1.4319    0.0000 C   0  0  0  0  0  0           0  0  0
    1.0178    0.6091    0.0000 C   0  0  0  0  0  0           0  0  0
    1.7396   -2.2757    0.0000 C   0  0  0  0  0  0           0  0  0
    2.4534   -1.8621    0.0000 N   0  0  0  0  0  0           0  0  0
    3.1686   -2.2735    0.0000 C   0  0  0  0  0  0           0  0  0
   -2.5078   -2.4295    0.0000 C   0  0  0  0  0  0           0  0  0
   -3.3140   -2.2455    0.0000 C   0  0  0  0  0  0           0  0  0
   -1.8631   -1.0928    0.0000 C   0  0  0  0  0  0           0  0  0
   -3.6741   -1.5047    0.0000 C   0  0  0  0  0  0           0  0  0
   -2.5093   -0.5776    0.0000 C   0  0  0  0  0  0           0  0  0
   -3.3141   -0.7637    0.0000 N   0  0  3  0  0  0           0  0  0
   -3.8282   -0.1185    0.0000 C   0  0  3  0  0  0           0  0  0
   -3.9534    0.7006    0.0000 C   0  0  0  0  0  0           0  0  0
   -4.5986    0.1864    0.0000 C   0  0  0  0  0  0           0  0  0
    3.1565    1.8558    0.0000 O   0  0  0  0  0  0           0  0  0
    3.8723    1.4456    0.0000 C   0  0  0  0  0  0           0  0  0
 14 15  1  0     0  0
  3  4  2  0     0  0
 15 16  2  0     0  0
 16 11  1  0     0  0
  7  8  1  0     0  0
  4 17  1  0     0  0
 17 18  1  0     0  0
  7  9  2  0     0  0
 18 19  1  0     0  0
  4  5  1  0     0  0
  8 20  1  0     0  0
  5 10  1  0     0  0
 20 21  1  0     0  0
  2  3  1  0     0  0
  8 22  1  0     0  0
 10 11  1  0     0  0
 21 23  1  0     0  0
  5  6  2  0     0  0
 22 24  1  0     0  0
 11 12  2  0     0  0
 23 25  1  0     0  0
 24 25  1  0     0  0
  6  1  1  0     0  0
 25 26  1  0     0  0
 27 26  1  0     0  0
 28 27  1  0     0  0
 26 28  1  0     0  0
 12 13  1  0     0  0
  1  2  2  0     0  0
 13 14  2  0     0  0
 13 29  1  0     0  0
  2  7  1  0     0  0
 29 30  1  0     0  0
M  END