
  SciTegic01161211252D

 35 38  0  0  0  0            999 V2000
    0.1836  -14.8634    0.0000 O   0  0
   -0.5409  -15.2579    0.0000 S   0  0
    0.1651  -15.6887    0.0000 O   0  0
    0.1919  -13.2316    0.0000 N   0  0
    0.8521  -12.7338    0.0000 C   0  0
    0.5872  -11.9525    0.0000 C   0  0  1  0  0  0
   -0.2404  -11.9659    0.0000 C   0  0
   -0.4823  -12.7550    0.0000 N   0  0
   -0.6679  -11.2577    0.0000 C   0  0
   -0.2649  -10.5387    0.0000 C   0  0
   -0.6921   -9.8318    0.0000 C   0  0
   -1.5180   -9.8468    0.0000 C   0  0
   -1.9149  -10.5746    0.0000 C   0  0
   -1.4895  -11.2785    0.0000 C   0  0
    1.0241  -11.2557    0.0000 C   0  0
    1.8498  -11.2900    0.0000 C   0  0
    2.2891  -10.5906    0.0000 C   0  0
    1.8997   -9.8605    0.0000 C   0  0
    1.0706   -9.8341    0.0000 C   0  0
    0.6392  -10.5343    0.0000 C   0  0
    0.1991  -14.0515    0.0000 C   0  0
   -0.5290  -14.4341    0.0000 N   0  0
   -1.2599  -15.6647    0.0000 N   0  0
   -1.9654  -15.2413    0.0000 C   0  0
   -2.6823  -15.6446    0.0000 C   0  0
   -2.6951  -16.4694    0.0000 C   0  0
   -1.9850  -16.8894    0.0000 C   0  0
   -1.2620  -16.4885    0.0000 C   0  0
   -1.9436   -9.1447    0.0000 Cl  0  0
   -3.4115  -16.8707    0.0000 C   0  0
   -4.1170  -16.4510    0.0000 F   0  0
   -3.4221  -17.6916    0.0000 F   0  0
   -4.1393  -17.2562    0.0000 F   0  0
    0.9037  -14.4730    0.0000 N   0  0
    1.6209  -14.0736    0.0000 C   0  0
 17 18  2  0
  9 10  2  0
 18 19  1  0
  4  5  1  0
 19 20  2  0
 20 15  1  0
  6 15  1  1
 10 11  1  0
  4 21  1  0
 21 22  2  0
 22  2  1  0
 11 12  2  0
  2 23  1  0
 23 24  1  0
  5  6  1  0
 12 13  1  0
  6  7  1  0
 13 14  2  0
 14  9  1  0
 23 28  1  0
 24 25  1  0
 25 26  1  0
 26 27  1  0
 27 28  1  0
  7  9  1  0
 12 29  1  0
  7  8  2  0
 26 30  1  0
  8  4  1  0
 30 31  1  0
 15 16  2  0
 30 32  1  0
  2  1  2  0
 30 33  1  0
 16 17  1  0
 21 34  1  0
  3  2  2  0
 34 35  1  0
M  END