
          05270816392D 1   1.00000     0.00000     0

 37 43  0     1  0            999 V2000
   10.2744  -24.0997    0.0000 C   0  0  0  0  0  0           0  0  0
   10.2732  -24.9227    0.0000 C   0  0  0  0  0  0           0  0  0
   11.6978  -24.0957    0.0000 C   0  0  0  0  0  0           0  0  0
   10.9888  -23.6868    0.0000 C   0  0  0  0  0  0           0  0  0
   11.7010  -24.9221    0.0000 C   0  0  0  0  0  0           0  0  0
   10.9896  -25.3366    0.0000 C   0  0  0  0  0  0           0  0  0
   10.9883  -26.1588    0.0000 C   0  0  0  0  0  0           0  0  0
   11.7012  -26.5727    0.0000 C   0  0  0  0  0  0           0  0  0
    9.6573  -25.4747    0.0000 N   0  0  0  0  0  0           0  0  0
   10.2037  -26.4133    0.0000 C   0  0  0  0  0  0           0  0  0
   12.4156  -25.3343    0.0000 C   0  0  1  0  0  0           0  0  0
   12.4165  -26.1622    0.0000 C   0  0  1  0  0  0           0  0  0
   13.1299  -26.5732    0.0000 N   0  0  3  0  0  0           0  0  0
   13.8471  -26.1608    0.0000 C   0  0  0  0  0  0           0  0  0
   13.8462  -25.3329    0.0000 C   0  0  2  0  0  0           0  0  0
   13.1282  -24.9174    0.0000 C   0  0  0  0  0  0           0  0  0
   12.4074  -26.9827    0.0000 H   0  0  0  0  0  0           0  0  0
   12.4074  -24.5077    0.0000 H   0  0  0  0  0  0           0  0  0
   14.5607  -24.9204    0.0000 C   0  0  0  0  0  0           0  0  0
   14.5607  -24.0954    0.0000 O   0  0  0  0  0  0           0  0  0
   15.2752  -25.3329    0.0000 N   0  0  3  0  0  0           0  0  0
   15.2701  -26.1632    0.0000 C   0  0  0  0  0  0           0  0  0
   15.9805  -26.5756    0.0000 C   0  0  0  0  0  0           0  0  0
   16.6974  -26.1666    0.0000 N   0  0  3  0  0  0           0  0  0
   16.6992  -25.3406    0.0000 C   0  0  0  0  0  0           0  0  0
   15.9843  -24.9236    0.0000 C   0  0  0  0  0  0           0  0  0
   17.4103  -26.5818    0.0000 C   0  0  0  0  0  0           0  0  0
   17.4023  -27.4057    0.0000 C   0  0  0  0  0  0           0  0  0
   18.1143  -27.8207    0.0000 C   0  0  0  0  0  0           0  0  0
   18.1192  -26.1702    0.0000 C   0  0  0  0  0  0           0  0  0
   13.1297  -27.3982    0.0000 C   0  0  0  0  0  0           0  0  0
    9.9093  -27.1840    0.0000 Br  0  0  0  0  0  0           0  0  0
   19.6177  -27.6677    0.0000 N   0  0  0  0  0  0           0  0  0
   20.1061  -26.9983    0.0000 O   0  0  0  0  0  0           0  0  0
   19.6204  -26.3270    0.0000 N   0  0  0  0  0  0           0  0  0
   18.8318  -26.5815    0.0000 C   0  0  0  0  0  0           0  0  0
   18.8302  -27.4102    0.0000 C   0  0  0  0  0  0           0  0  0
 12 17  1  6     0  0
  7  8  1  0     0  0
 11 18  1  1     0  0
  8 12  1  0     0  0
 15 19  1  6     0  0
  3  4  2  0     0  0
 19 20  2  0     0  0
  2  9  1  0     0  0
 19 21  1  0     0  0
 21 22  1  0     0  0
  4  1  1  0     0  0
  7 10  2  0     0  0
  9 10  1  0     0  0
 11 12  1  0     0  0
  5  6  2  0     0  0
 21 26  1  0     0  0
 22 23  1  0     0  0
 23 24  1  0     0  0
 24 25  1  0     0  0
 25 26  1  0     0  0
  2  6  1  0     0  0
 24 27  1  0     0  0
 27 28  1  0     0  0
  5  3  1  0     0  0
 28 29  2  0     0  0
 29 37  1  0     0  0
  1  2  2  0     0  0
 36 30  1  0     0  0
 30 27  2  0     0  0
  5 11  1  0     0  0
 13 31  1  0     0  0
 11 16  1  0     0  0
 10 32  1  0     0  0
 36 37  1  0     0  0
 12 13  1  0     0  0
 13 14  1  0     0  0
 34 35  1  0     0  0
 14 15  1  0     0  0
 15 16  1  0     0  0
  6  7  1  0     0  0
 33 34  1  0     0  0
 35 36  2  0     0  0
 37 33  2  0     0  0
M  END