
  SciTegic01161211252D

 33 37  0  0  0  0            999 V2000
   -5.3000  -19.4518    0.0000 C   0  0
   -5.3013  -20.2795    0.0000 C   0  0
   -4.5883  -20.6923    0.0000 C   0  0
   -4.5902  -19.0390    0.0000 C   0  0
   -6.0148  -19.0399    0.0000 F   0  0
   -4.5941  -18.2140    0.0000 C   0  0
   -3.8720  -19.4479    0.0000 C   0  0
   -3.8715  -20.2795    0.0000 C   0  0
   -3.0805  -20.5359    0.0000 N   0  0
   -2.5921  -19.8628    0.0000 C   0  0
   -3.0814  -19.1904    0.0000 N   0  0
   -1.7671  -19.8622    0.0000 C   0  0
   -1.3587  -20.5778    0.0000 C   0  0
   -0.5345  -20.5776    0.0000 C   0  0
   -0.1217  -19.8624    0.0000 C   0  0
   -0.5390  -19.1457    0.0000 C   0  0
   -1.3619  -19.1494    0.0000 C   0  0
   -1.7785  -18.4374    0.0000 C   0  0
    0.7033  -19.8606    0.0000 O   0  0
    1.1173  -20.5743    0.0000 C   0  0
    1.9423  -20.5726    0.0000 C   0  0
    2.3563  -21.2862    0.0000 C   0  0
    3.1813  -21.2846    0.0000 N   0  0
    3.6705  -21.9483    0.0000 C   0  0
    3.6678  -20.6135    0.0000 C   0  0
    4.4530  -20.8668    0.0000 C   0  0  2  0  0  0
    4.4505  -21.6886    0.0000 C   0  0  1  0  0  0
    5.1571  -22.0993    0.0000 N   0  0
    5.8706  -21.6928    0.0000 C   0  0
    5.8731  -20.8710    0.0000 C   0  0
    5.1619  -20.4557    0.0000 C   0  0
    4.4459  -20.0386    0.0000 H   0  0
    4.4459  -22.5136    0.0000 H   0  0
 15 16  1  0
  1  2  2  0
 16 17  2  0
 17 12  1  0
  7  4  2  0
 17 18  1  0
  4  1  1  0
 15 19  1  0
 19 20  1  0
  8  9  1  0
 20 21  1  0
  9 10  1  0
 21 22  1  0
 10 11  2  0
 22 23  1  0
 23 24  1  0
 11  7  1  0
  1  5  1  0
 27 24  1  0
 26 25  1  0
 25 23  1  0
 26 27  1  0
 10 12  1  0
  2  3  1  0
 12 13  2  0
  4  6  1  0
 13 14  1  0
  7  8  1  0
 26 31  1  0
 27 28  1  0
 28 29  1  0
 29 30  1  0
 30 31  1  0
 14 15  2  0
 26 32  1  6
  3  8  2  0
 27 33  1  6
M  END