
          11280715012D 1   1.00000     0.00000     0

 39 42  0     0  0            999 V2000
    4.5167   -5.4917    0.0000 C   0  0  0  0  0  0           0  0  0
    4.8542   -5.0000    0.0000 N   0  0  0  0  0  0           0  0  0
    5.4292   -5.1792    0.0000 C   0  0  0  0  0  0           0  0  0
    5.4375   -5.7792    0.0000 O   0  0  0  0  0  0           0  0  0
    4.8667   -5.9667    0.0000 C   0  0  0  0  0  0           0  0  0
    3.9500   -5.6875    0.0000 C   0  0  0  0  0  0           0  0  0
    6.4667   -3.3792    0.0000 C   0  0  0  0  0  0           0  0  0
    6.4667   -3.9792    0.0000 C   0  0  0  0  0  0           0  0  0
    5.9542   -4.8792    0.0000 C   0  0  0  0  0  0           0  0  0
    5.9542   -4.2792    0.0000 C   0  0  0  0  0  0           0  0  0
    9.5792   -3.3750    0.0000 C   0  0  0  0  0  0           0  0  0
    5.9500   -3.0792    0.0000 C   0  0  0  0  0  0           0  0  0
    3.5000   -5.2875    0.0000 O   0  0  0  0  0  0           0  0  0
    6.9875   -3.0792    0.0000 C   0  0  0  0  0  0           0  0  0
    5.4292   -2.1792    0.0000 N   0  0  0  0  0  0           0  0  0
    9.5792   -3.9750    0.0000 O   0  0  0  0  0  0           0  0  0
    3.8292   -6.2750    0.0000 N   0  0  0  0  0  0           0  0  0
   10.1042   -3.0750    0.0000 O   0  0  0  0  0  0           0  0  0
    5.9500   -2.4792    0.0000 C   0  0  0  0  0  0           0  0  0
    6.9875   -4.2750    0.0000 C   0  0  0  0  0  0           0  0  0
    6.4750   -5.1792    0.0000 C   0  0  0  0  0  0           0  0  0
    6.9917   -4.8750    0.0000 C   0  0  0  0  0  0           0  0  0
    9.0625   -3.0750    0.0000 C   0  0  0  0  0  0           0  0  0
    4.9042   -2.4792    0.0000 C   0  0  0  0  0  0           0  0  0
    1.2250   -6.0500    0.0000 C   0  0  3  0  0  0           0  0  0
    7.5042   -3.3792    0.0000 C   0  0  0  0  0  0           0  0  0
    5.4292   -3.3792    0.0000 C   0  0  0  0  0  0           0  0  0
    3.2625   -6.4667    0.0000 C   0  0  0  0  0  0           0  0  0
    1.7917   -5.8625    0.0000 C   0  0  0  0  0  0           0  0  0
    1.1042   -6.6375    0.0000 C   0  0  0  0  0  0           0  0  0
    0.7792   -5.6542    0.0000 C   0  0  0  0  0  0           0  0  0
    8.5417   -3.3750    0.0000 C   0  0  0  0  0  0           0  0  0
    8.0292   -3.0750    0.0000 C   0  0  0  0  0  0           0  0  0
    2.8125   -6.0667    0.0000 C   0  0  0  0  0  0           0  0  0
    2.2417   -6.2542    0.0000 C   0  0  0  0  0  0           0  0  0
    4.9042   -3.0792    0.0000 C   0  0  0  0  0  0           0  0  0
    0.5375   -6.8292    0.0000 C   0  0  0  0  0  0           0  0  0
    0.2125   -5.8375    0.0000 C   0  0  0  0  0  0           0  0  0
    0.0917   -6.4292    0.0000 C   0  0  0  0  0  0           0  0  0
  2  1  1  0     0  0
  3  2  2  0     0  0
  4  5  1  0     0  0
  5  1  2  0     0  0
  6  1  1  0     0  0
  7  8  1  0     0  0
  8 10  2  0     0  0
  9  3  1  0     0  0
 10  9  1  0     0  0
 11 23  1  0     0  0
 12  7  1  0     0  0
 13  6  2  0     0  0
 14  7  2  0     0  0
 15 19  2  0     0  0
 16 11  2  0     0  0
 17  6  1  0     0  0
 18 11  1  0     0  0
 19 12  1  0     0  0
 20 22  2  0     0  0
 21  9  2  0     0  0
 22 21  1  0     0  0
 23 32  1  0     0  0
 24 36  2  0     0  0
 25 29  1  0     0  0
 26 14  1  0     0  0
 27 12  2  0     0  0
 28 17  1  0     0  0
 29 35  1  0     0  0
 30 25  1  0     0  0
 31 25  1  0     0  0
 32 33  1  0     0  0
 33 26  1  0     0  0
 34 28  1  0     0  0
 35 34  1  0     0  0
 36 27  1  0     0  0
 37 30  1  0     0  0
 38 31  1  0     0  0
 39 38  1  0     0  0
  4  3  1  0     0  0
  8 20  1  0     0  0
 37 39  1  0     0  0
 24 15  1  0     0  0
M  END