
          01230816042D 1   1.00000     0.00000     0

 52 58  0     1  0            999 V2000
   -4.5848   -3.6875    0.0000 C   0  0  0  0  0  0           0  0  0
   -4.5859   -4.5148    0.0000 C   0  0  0  0  0  0           0  0  0
   -3.8711   -4.9277    0.0000 C   0  0  0  0  0  0           0  0  0
   -3.8729   -3.2747    0.0000 C   0  0  0  0  0  0           0  0  0
   -3.1575   -3.6838    0.0000 C   0  0  0  0  0  0           0  0  0
   -3.1541   -4.5169    0.0000 C   0  0  0  0  0  0           0  0  0
   -2.4349   -4.9282    0.0000 C   0  0  0  0  0  0           0  0  0
   -1.7145   -4.5110    0.0000 C   0  0  0  0  0  0           0  0  0
   -3.6542   -5.6792    0.0000 N   0  0  0  0  0  0           0  0  0
   -2.6542   -5.7208    0.0000 C   0  0  0  0  0  0           0  0  0
   -2.4418   -3.2620    0.0000 C   0  0  0  0  0  0           0  0  0
   -1.7160   -3.6774    0.0000 C   0  0  2  0  0  0           0  0  0
   -0.9975   -3.2589    0.0000 N   0  0  3  0  0  0           0  0  0
   -0.9984   -2.4233    0.0000 C   0  0  0  0  0  0           0  0  0
   -1.7241   -2.0080    0.0000 C   0  0  1  0  0  0           0  0  0
   -2.4489   -2.4282    0.0000 C   0  0  0  0  0  0           0  0  0
   -0.2820   -3.6696    0.0000 C   0  0  0  0  0  0           0  0  0
   -1.7264   -1.1830    0.0000 C   0  0  0  0  0  0           0  0  0
   -1.0131   -0.7685    0.0000 N   0  0  0  0  0  0           0  0  0
   -2.4420   -0.7725    0.0000 O   0  0  0  0  0  0           0  0  0
   -1.0154    0.0565    0.0000 C   0  0  2  0  0  0           0  0  0
   -0.3021    0.4710    0.0000 C   0  0  0  0  0  0           0  0  0
   -1.7310    0.4670    0.0000 C   0  0  0  0  0  0           0  0  0
   -1.7333    1.2920    0.0000 C   0  0  0  0  0  0           0  0  0
   -2.4489    1.7025    0.0000 C   0  0  3  0  0  0           0  0  0
   -2.4526    2.5312    0.0000 C   0  0  0  0  0  0           0  0  0
   -3.1641    2.9416    0.0000 C   0  0  0  0  0  0           0  0  0
   -3.8799    2.5306    0.0000 C   0  0  0  0  0  0           0  0  0
   -3.8796    1.7046    0.0000 C   0  0  0  0  0  0           0  0  0
   -3.1635    1.2897    0.0000 C   0  0  0  0  0  0           0  0  0
    0.4136    0.0605    0.0000 N   0  0  0  0  0  0           0  0  0
   -0.3044    1.2960    0.0000 O   0  0  0  0  0  0           0  0  0
    1.1269    0.4750    0.0000 C   0  0  2  0  0  0           0  0  0
    1.7175    0.0020    0.0000 C   0  0  0  0  0  0           0  0  0
    1.1246    1.3000    0.0000 C   0  0  0  0  0  0           0  0  0
    1.8379    1.7145    0.0000 C   0  0  0  0  0  0           0  0  0
    2.5510    1.3018    0.0000 C   0  0  0  0  0  0           0  0  0
    3.2638    1.7156    0.0000 C   0  0  0  0  0  0           0  0  0
    3.2619    2.5415    0.0000 C   0  0  0  0  0  0           0  0  0
    2.5413    2.9518    0.0000 C   0  0  0  0  0  0           0  0  0
    1.8314    2.5356    0.0000 C   0  0  0  0  0  0           0  0  0
    3.9747    2.9569    0.0000 F   0  0  0  0  0  0           0  0  0
    1.4042   -0.7458    0.0000 O   0  0  0  0  0  0           0  0  0
    2.5197    0.1946    0.0000 N   0  0  3  0  0  0           0  0  0
    3.1424   -0.3414    0.0000 C   0  0  1  0  0  0           0  0  0
    3.8458    0.0897    0.0000 C   0  0  0  0  0  0           0  0  0
    3.6531    0.8920    0.0000 C   0  0  0  0  0  0           0  0  0
    2.8307    0.9565    0.0000 C   0  0  0  0  0  0           0  0  0
    3.0761   -1.1637    0.0000 C   0  0  0  0  0  0           0  0  0
    2.3308   -1.5175    0.0000 O   0  0  0  0  0  0           0  0  0
    3.7551   -1.6323    0.0000 N   0  0  0  0  0  0           0  0  0
   -1.0042   -4.0875    0.0000 H   0  0  0  0  0  0           0  0  0
 11 12  1  0     0  0
 24 25  1  0     0  0
 25 26  1  0     0  0
  5  6  1  0     0  0
  2  3  1  0     0  0
  3  6  2  0     0  0
  1  2  2  0     0  0
 25 30  1  0     0  0
 26 27  1  0     0  0
 27 28  1  0     0  0
 28 29  1  0     0  0
 29 30  1  0     0  0
  5 11  1  0     0  0
 22 31  1  0     0  0
 11 16  2  0     0  0
 22 32  2  0     0  0
 12 13  1  0     0  0
 31 33  1  0     0  0
 13 14  1  0     0  0
 33 34  1  0     0  0
 14 15  1  0     0  0
 33 35  1  1     0  0
 15 16  1  0     0  0
 35 36  1  0     0  0
  6  7  1  0     0  0
 36 37  2  0     0  0
 13 17  1  0     0  0
 37 38  1  0     0  0
  7  8  1  0     0  0
 38 39  2  0     0  0
 15 18  1  1     0  0
 39 40  1  0     0  0
  8 12  1  0     0  0
 40 41  2  0     0  0
 41 36  1  0     0  0
 18 19  1  0     0  0
 39 42  1  0     0  0
  5  4  2  0     0  0
 34 43  2  0     0  0
 18 20  2  0     0  0
 34 44  1  0     0  0
 44 45  1  0     0  0
  3  9  1  0     0  0
 19 21  1  0     0  0
  4  1  1  0     0  0
 21 22  1  0     0  0
 45 46  1  0     0  0
 46 47  1  0     0  0
 47 48  1  0     0  0
 48 44  1  0     0  0
  7 10  2  0     0  0
 45 49  1  1     0  0
 21 23  1  1     0  0
 49 50  2  0     0  0
  9 10  1  0     0  0
 49 51  1  0     0  0
 23 24  1  0     0  0
 12 52  1  1     0  0
M  END