
          05080814042D 1   1.00000     0.00000     0

 37 41  0     1  0            999 V2000
   -4.8607    3.1012    0.0000 C   0  0  0  0  0  0           0  0  0
   -5.5715    2.6863    0.0000 C   0  0  0  0  0  0           0  0  0
   -5.5645    1.8600    0.0000 C   0  0  0  0  0  0           0  0  0
   -4.8506    1.4565    0.0000 C   0  0  0  0  0  0           0  0  0
   -4.1474    2.6940    0.0000 C   0  0  0  0  0  0           0  0  0
   -4.1414    1.8663    0.0000 C   0  0  0  0  0  0           0  0  0
   -3.4255    1.4599    0.0000 C   0  0  0  0  0  0           0  0  0
   -3.4376    3.1153    0.0000 C   0  0  0  0  0  0           0  0  0
   -2.7172    2.7044    0.0000 C   0  0  2  0  0  0           0  0  0
   -2.7126    1.8748    0.0000 C   0  0  2  0  0  0           0  0  0
   -1.9959    1.4662    0.0000 N   0  0  3  0  0  0           0  0  0
   -1.2790    1.8827    0.0000 C   0  0  0  0  0  0           0  0  0
   -1.2836    2.7123    0.0000 C   0  0  1  0  0  0           0  0  0
   -2.0050    3.1254    0.0000 C   0  0  0  0  0  0           0  0  0
   -2.7250    3.5333    0.0000 H   0  0  0  0  0  0           0  0  0
   -2.7208    1.0500    0.0000 H   0  0  0  0  0  0           0  0  0
   -0.5710    3.1280    0.0000 C   0  0  0  0  0  0           0  0  0
    0.1453    2.7187    0.0000 N   0  0  3  0  0  0           0  0  0
   -0.5747    3.9530    0.0000 O   0  0  0  0  0  0           0  0  0
    0.1430    1.8905    0.0000 C   0  0  0  0  0  0           0  0  0
    0.8552    1.4813    0.0000 C   0  0  0  0  0  0           0  0  0
    1.5703    1.8935    0.0000 N   0  0  3  0  0  0           0  0  0
    1.5686    2.7194    0.0000 C   0  0  0  0  0  0           0  0  0
    0.8518    3.1332    0.0000 C   0  0  0  0  0  0           0  0  0
   -4.8647    3.9262    0.0000 O   0  0  0  0  0  0           0  0  0
   -5.5811    4.3398    0.0000 C   0  0  0  0  0  0           0  0  0
   -1.9925    0.6412    0.0000 C   0  0  0  0  0  0           0  0  0
    2.2850    1.4814    0.0000 C   0  0  0  0  0  0           0  0  0
    2.2811    0.6573    0.0000 C   0  0  0  0  0  0           0  0  0
    2.9950    0.2453    0.0000 C   0  0  0  0  0  0           0  0  0
    3.7102    0.6584    0.0000 C   0  0  0  0  0  0           0  0  0
    3.7070    1.4876    0.0000 C   0  0  0  0  0  0           0  0  0
    2.9925    1.8958    0.0000 C   0  0  0  0  0  0           0  0  0
    4.4255    0.2473    0.0000 S   0  0  3  0  0  0           0  0  0
    5.1375   -0.1625    0.0000 C   0  0  0  0  0  0           0  0  0
    4.8368    0.9625    0.0000 O   0  0  0  0  0  0           0  0  0
    4.0172   -0.4696    0.0000 O   0  0  0  0  0  0           0  0  0
  7 10  1  0     0  0
 17 18  1  0     0  0
  9  8  1  0     0  0
 17 19  2  0     0  0
 18 20  1  0     0  0
  9 10  1  0     0  0
  3  4  2  0     0  0
  4  6  1  0     0  0
  5  6  2  0     0  0
  1  2  2  0     0  0
 18 24  1  0     0  0
 20 21  1  0     0  0
 21 22  1  0     0  0
 22 23  1  0     0  0
 23 24  1  0     0  0
  5  1  1  0     0  0
  1 25  1  0     0  0
  2  3  1  0     0  0
 25 26  1  0     0  0
  9 14  1  0     0  0
 11 27  1  0     0  0
 10 11  1  0     0  0
 22 28  1  0     0  0
 11 12  1  0     0  0
 28 29  2  0     0  0
 12 13  1  0     0  0
 29 30  1  0     0  0
 13 14  1  0     0  0
 30 31  2  0     0  0
 31 32  1  0     0  0
  9 15  1  6     0  0
 32 33  2  0     0  0
 33 28  1  0     0  0
  5  8  1  0     0  0
 31 34  1  0     0  0
 10 16  1  1     0  0
 34 35  1  0     0  0
  6  7  1  0     0  0
 34 36  2  0     0  0
 13 17  1  1     0  0
 34 37  2  0     0  0
M  END