
  SciTegic10301317112D

 74 79  0  0  1  0            999 V2000
   12.1905   -5.0584    0.0000 N   0  0
   11.4859   -4.6460    0.0000 C   0  0
    7.2066   -6.3130    0.0000 C   0  0
    2.8930   -4.6975    0.0000 C   0  0
    7.1895   -4.6631    0.0000 C   0  0
    5.0526   -5.0928    0.0000 C   0  0
    9.3377   -5.0584    0.0000 C   0  0
   12.9639   -5.3506    0.0000 C   0  0  2  0  0  0
    8.5128   -6.5822    0.0000 N   0  0
    2.1884   -5.1214    0.0000 C   0  0  1  0  0  0
    3.6148   -5.1042    0.0000 N   0  0
    5.7630   -4.6746    0.0000 N   0  0
    7.9113   -5.0698    0.0000 N   0  0
   10.0537   -4.6288    0.0000 N   0  0
    7.9628   -5.9693    0.0000 C   0  0
    6.4848   -5.0756    0.0000 C   0  0  2  0  0  0
    4.3194   -4.6803    0.0000 C   0  0  1  0  0  0
    8.6273   -4.6460    0.0000 C   0  0  1  0  0  0
    1.4666   -4.7089    0.0000 N   0  0
    0.7448   -5.1272    0.0000 C   0  0
   13.1816   -6.1583    0.0000 C   0  0
   10.7755   -5.0584    0.0000 C   0  0  1  0  0  0
   12.1562   -8.3753    0.0000 C   0  0
    7.2926   -7.1321    0.0000 C   0  0
    6.4848   -5.9005    0.0000 C   0  0
   -0.6817   -5.1386    0.0000 C   0  0
    8.1117   -7.2926    0.0000 C   0  0
    0.0344   -4.7147    0.0000 C   0  0
   -1.3921   -4.7261    0.0000 C   0  0
   11.4458   -8.7706    0.0000 N   0  0
   11.4973   -3.8210    0.0000 O   0  0
    2.8930   -3.8726    0.0000 O   0  0
    7.1895   -3.8382    0.0000 O   0  0
    9.3549   -5.8833    0.0000 O   0  0
    5.0584   -5.9177    0.0000 O   0  0
    4.3194   -3.8554    0.0000 C   0  0
   12.5858   -6.7369    0.0000 O   0  0
    0.7620   -5.9521    0.0000 O   0  0
    8.6159   -3.8210    0.0000 C   0  0
   12.1734   -7.5504    0.0000 N   0  0
   13.9779   -6.3645    0.0000 N   0  0
   12.8722   -8.7877    0.0000 N   0  0
   12.2421   -4.2335    0.0000 C   0  0
   -2.1081   -5.1386    0.0000 C   0  0
    5.0355   -3.4372    0.0000 C   0  0
    6.4619   -2.6008    0.0000 C   0  0
    2.1884   -5.9349    0.0000 C   0  0
    5.0240   -2.6123    0.0000 C   0  0
    5.7573   -3.8382    0.0000 C   0  0
    5.7459   -2.1884    0.0000 C   0  0
    6.4677   -3.4258    0.0000 C   0  0
   13.4909   -4.7147    0.0000 C   0  0
    7.1723   -2.1826    0.0000 O   0  0
   -0.6702   -5.9521    0.0000 C   0  0
    2.9102   -6.3474    0.0000 O   0  0
   13.0441   -4.0273    0.0000 C   0  0
   10.7641   -5.8833    0.0000 C   0  0
    6.7540   -7.7566    0.0000 C   0  0
   -1.3863   -6.3645    0.0000 C   0  0
    9.3205   -3.4086    0.0000 C   0  0
   -1.4035   -3.9012    0.0000 C   0  0
    8.3753   -8.0831    0.0000 C   0  0
   -2.1081   -5.9635    0.0000 C   0  0
   14.1841   -7.1723    0.0000 C   0  0
   11.4630   -7.1321    0.0000 C   0  0
   -2.8127   -4.7319    0.0000 C   0  0
   11.4687   -6.3072    0.0000 C   0  0
   10.0423   -3.8038    0.0000 C   0  0
    9.3205   -2.5837    0.0000 C   0  0
   14.9747   -7.3785    0.0000 C   0  0
    7.0118   -8.5414    0.0000 C   0  0
   -2.1081   -3.4945    0.0000 C   0  0
    7.8253   -8.7018    0.0000 C   0  0
   -2.8299   -3.9070    0.0000 C   0  0
  2  1  1  0
  3 25  1  0
  4 11  1  0
  5 13  1  0
  6 12  1  0
  7 14  1  0
  8  1  1  0
  9 15  1  0
 10  4  1  0
 11 17  1  0
 12 16  1  0
 13 18  1  0
 14 22  1  0
 15  3  2  0
 16  5  1  0
 17  6  1  0
 18  7  1  0
 19 10  1  0
 20 19  1  0
  8 21  1  1
 22  2  1  0
 23 40  2  0
 24  3  1  0
 16 25  1  1
 26 28  1  0
 27 24  2  0
 28 20  1  0
 29 26  2  0
 30 23  1  0
 31  2  2  0
 32  4  2  0
 33  5  2  0
 34  7  2  0
 35  6  2  0
 17 36  1  1
 37 21  2  0
 38 20  2  0
 18 39  1  1
 40 65  1  0
 41 21  1  0
 42 23  1  0
 43  1  1  0
 44 29  1  0
 45 36  1  0
 46 51  2  0
 10 47  1  6
 48 45  1  0
 49 45  2  0
 50 48  2  0
 51 49  1  0
 52  8  1  0
 53 46  1  0
 54 26  1  0
 55 47  1  0
 56 43  1  0
 22 57  1  6
 58 24  1  0
 59 54  2  0
 60 39  1  0
 61 29  1  0
 62 27  1  0
 63 59  1  0
 64 41  1  0
 65 67  1  0
 66 44  1  0
 67 57  1  0
 68 60  1  0
 69 60  1  0
 70 64  1  0
 71 58  2  0
 72 61  2  0
 73 71  1  0
 74 72  1  0
 56 52  1  0
 27  9  1  0
 62 73  2  0
 50 46  1  0
 44 63  2  0
 74 66  2  0
M  END