
          11280715142D 1   1.00000     0.00000     0

 40 44  0     1  0            999 V2000
    5.4875   -3.8250    0.0000 C   0  0  2  0  0  0           0  0  0
    5.4667   -1.9542    0.0000 N   0  0  3  0  0  0           0  0  0
    5.8917   -4.5375    0.0000 C   0  0  1  0  0  0           0  0  0
    4.8292   -3.3125    0.0000 C   0  0  0  0  0  0           0  0  0
    4.8292   -2.4792    0.0000 C   0  0  0  0  0  0           0  0  0
    5.6917   -6.0417    0.0000 C   0  0  0  0  0  0           0  0  0
    6.2917   -3.6292    0.0000 N   0  0  0  0  0  0           0  0  0
    5.7667   -0.5625    0.0000 C   0  0  0  0  0  0           0  0  0
    5.2167   -1.1667    0.0000 C   0  0  0  0  0  0           0  0  0
    6.2792   -2.1375    0.0000 C   0  0  0  0  0  0           0  0  0
    6.6917   -4.7500    0.0000 C   0  0  0  0  0  0           0  0  0
    5.4792   -5.2500    0.0000 O   0  0  0  0  0  0           0  0  0
    6.4792   -6.2542    0.0000 N   0  0  0  0  0  0           0  0  0
    5.1042   -6.6250    0.0000 N   0  0  0  0  0  0           0  0  0
    6.6500   -2.8792    0.0000 C   0  0  0  0  0  0           0  0  0
    6.5750   -0.7375    0.0000 C   0  0  0  0  0  0           0  0  0
    5.5167    0.2208    0.0000 C   0  0  0  0  0  0           0  0  0
    4.8917   -4.4042    0.0000 C   0  0  0  0  0  0           0  0  0
    5.3167   -7.4167    0.0000 C   0  0  0  0  0  0           0  0  0
    6.6917   -7.0417    0.0000 C   0  0  0  0  0  0           0  0  0
    6.1125   -7.6292    0.0000 C   0  0  0  0  0  0           0  0  0
    6.8250   -1.7417    0.0000 O   0  0  0  0  0  0           0  0  0
    6.9042   -5.5417    0.0000 O   0  0  0  0  0  0           0  0  0
    7.4792   -4.5292    0.0000 O   0  0  0  0  0  0           0  0  0
    4.1125   -3.7250    0.0000 C   0  0  0  0  0  0           0  0  0
    4.7042    0.3875    0.0000 F   0  0  0  0  0  0           0  0  0
    6.6417   -1.1500    0.0000 F   0  0  0  0  0  0           0  0  0
    4.1125   -2.0667    0.0000 C   0  0  0  0  0  0           0  0  0
    6.8792    0.6583    0.0000 C   0  0  0  0  0  0           0  0  0
    6.0667    0.8333    0.0000 C   0  0  0  0  0  0           0  0  0
    7.1292   -0.1292    0.0000 C   0  0  0  0  0  0           0  0  0
    4.1000   -4.1792    0.0000 C   0  0  0  0  0  0           0  0  0
    5.1042   -5.2042    0.0000 C   0  0  0  0  0  0           0  0  0
    7.4917   -7.2542    0.0000 C   0  0  0  0  0  0           0  0  0
    4.7292   -8.0042    0.0000 C   0  0  0  0  0  0           0  0  0
    3.4000   -3.3125    0.0000 C   0  0  0  0  0  0           0  0  0
    3.4000   -2.4875    0.0000 C   0  0  0  0  0  0           0  0  0
    4.5125   -5.7792    0.0000 C   0  0  0  0  0  0           0  0  0
    3.5125   -4.7542    0.0000 C   0  0  0  0  0  0           0  0  0
    3.7167   -5.5542    0.0000 C   0  0  0  0  0  0           0  0  0
  2  5  1  0     0  0
  3  1  1  0     0  0
  4  1  1  0     0  0
  5  4  1  0     0  0
  6 12  1  0     0  0
  7  1  1  0     0  0
  8  9  1  0     0  0
  9  2  1  0     0  0
 10 15  1  0     0  0
 11  3  1  0     0  0
  3 12  1  1     0  0
 13  6  1  0     0  0
 14  6  2  0     0  0
 15  7  1  0     0  0
 16  8  2  0     0  0
 17  8  1  0     0  0
  1 18  1  1     0  0
 19 14  1  0     0  0
 20 13  2  0     0  0
 21 19  2  0     0  0
 22 10  2  0     0  0
 23 11  2  0     0  0
 24 11  1  0     0  0
 25  4  2  0     0  0
 26 17  1  0     0  0
 27 16  1  0     0  0
 28  5  2  0     0  0
 29 30  1  0     0  0
 30 17  2  0     0  0
 31 16  1  0     0  0
 32 18  2  0     0  0
 33 18  1  0     0  0
 34 20  1  0     0  0
 35 19  1  0     0  0
 36 25  1  0     0  0
 37 36  2  0     0  0
 38 33  2  0     0  0
 39 32  1  0     0  0
 40 38  1  0     0  0
  2 10  1  0     0  0
 39 40  2  0     0  0
 28 37  1  0     0  0
 20 21  1  0     0  0
 31 29  2  0     0  0
M  END