
          11280715262D 1   1.00000     0.00000     0

 30 33  0     0  0            999 V2000
    1.6792    0.5958    0.0000 N   0  0  3  0  0  0           0  0  0
    2.3417    1.0750    0.0000 C   0  0  0  0  0  0           0  0  0
    1.0042    1.0708    0.0000 C   0  0  0  0  0  0           0  0  0
    1.6792   -0.2292    0.0000 C   0  0  3  0  0  0           0  0  0
    1.2625    1.8583    0.0000 C   0  0  0  0  0  0           0  0  0
    2.0875    1.8583    0.0000 C   0  0  0  0  0  0           0  0  0
    5.2542   -1.4542    0.0000 C   0  0  0  0  0  0           0  0  0
    0.2292    0.8125    0.0000 O   0  0  0  0  0  0           0  0  0
    3.1292    0.8208    0.0000 O   0  0  0  0  0  0           0  0  0
   -1.8875   -1.4792    0.0000 N   0  0  0  0  0  0           0  0  0
    2.4000   -0.6417    0.0000 C   0  0  0  0  0  0           0  0  0
    5.9750   -1.8667    0.0000 C   0  0  0  0  0  0           0  0  0
    4.5417   -1.8667    0.0000 C   0  0  0  0  0  0           0  0  0
    5.2500   -0.6250    0.0000 C   0  0  0  0  0  0           0  0  0
    3.1125   -0.2167    0.0000 O   0  0  0  0  0  0           0  0  0
    0.9667   -0.6417    0.0000 C   0  0  0  0  0  0           0  0  0
    3.8292   -0.6375    0.0000 C   0  0  0  0  0  0           0  0  0
    0.2542   -0.2375    0.0000 C   0  0  0  0  0  0           0  0  0
    4.5292   -0.2167    0.0000 C   0  0  0  0  0  0           0  0  0
    3.8292   -1.4625    0.0000 C   0  0  0  0  0  0           0  0  0
   -0.4583   -0.6542    0.0000 C   0  0  0  0  0  0           0  0  0
   -1.8875   -0.6542    0.0000 C   0  0  0  0  0  0           0  0  0
   -1.1750   -1.8917    0.0000 C   0  0  0  0  0  0           0  0  0
    5.9750   -2.6917    0.0000 C   0  0  0  0  0  0           0  0  0
    6.6792   -1.4500    0.0000 C   0  0  0  0  0  0           0  0  0
   -1.1750   -0.2417    0.0000 C   0  0  0  0  0  0           0  0  0
   -0.4583   -1.4792    0.0000 C   0  0  0  0  0  0           0  0  0
    7.3917   -1.8542    0.0000 C   0  0  0  0  0  0           0  0  0
    6.6917   -3.1000    0.0000 C   0  0  0  0  0  0           0  0  0
    7.4042   -2.6792    0.0000 C   0  0  0  0  0  0           0  0  0
  2  1  1  0     0  0
  3  1  1  0     0  0
  4  1  1  0     0  0
  5  3  1  0     0  0
  6  2  1  0     0  0
  7 13  2  0     0  0
  8  3  2  0     0  0
  9  2  2  0     0  0
 10 23  1  0     0  0
 11  4  1  0     0  0
 12  7  1  0     0  0
 13 20  1  0     0  0
 14 19  2  0     0  0
 15 11  1  0     0  0
 16  4  1  0     0  0
 17 15  1  0     0  0
 18 16  1  0     0  0
 19 17  1  0     0  0
 20 17  2  0     0  0
 21 18  1  0     0  0
 22 26  1  0     0  0
 23 27  2  0     0  0
 24 12  2  0     0  0
 25 12  1  0     0  0
 26 21  2  0     0  0
 27 21  1  0     0  0
 28 25  2  0     0  0
 29 24  1  0     0  0
 30 28  1  0     0  0
  6  5  1  0     0  0
 22 10  2  0     0  0
  7 14  1  0     0  0
 29 30  2  0     0  0
M  END