
  SciTegic01311317052D

 37 40  0  0  0  0            999 V2000
   -5.3829   -0.1523    0.0000 C   0  0
   -4.9761   -0.8643    0.0000 C   0  0
   -4.1579   -0.8671    0.0000 C   0  0
   -3.7456   -0.1586    0.0000 C   0  0
   -4.1573    0.5542    0.0000 C   0  0
   -4.9741    0.5534    0.0000 C   0  0
   -3.7449    1.2694    0.0000 C   0  0
   -2.9200   -0.1599    0.0000 N   0  0
   -2.5070   -0.8793    0.0000 C   0  0
   -1.6850   -0.8826    0.0000 C   0  0
   -1.2672   -0.1701    0.0000 N   0  0
   -1.6776    0.5473    0.0000 C   0  0
   -2.5058    0.5523    0.0000 C   0  0
   -0.4416   -0.1746    0.0000 S   0  0
    0.3836   -0.1709    0.0000 C   0  0
    0.9674    0.4170    0.0000 C   0  0  1  0  0  0
   -0.4420   -1.0002    0.0000 O   0  0
   -0.4408    0.6510    0.0000 O   0  0
    0.2007    0.6403    0.0000 C   0  0
    0.8605    0.8559    0.0000 C   0  0
    1.5737    0.7577    0.0000 C   0  0
    1.9770    1.4071    0.0000 C   0  0
    1.8177   -0.0539    0.0000 C   0  0
    1.2271   -0.2900    0.0000 C   0  0  2  0  0  0
    1.7596    2.2099    0.0000 C   0  0
    2.8020    1.4093    0.0000 C   0  0
    0.8910   -1.0442    0.0000 N   0  0
    1.3761   -1.7122    0.0000 C   0  0
    1.0400   -2.4663    0.0000 O   0  0
    2.1972   -1.6263    0.0000 C   0  0  2  0  0  0
    2.6822   -2.2944    0.0000 C   0  0
    3.5033   -2.2083    0.0000 C   0  0
    3.9883   -2.8765    0.0000 S   0  0
    4.3949   -3.5859    0.0000 C   0  0
    4.6816   -2.4281    0.0000 O   0  0
    3.3000   -3.3322    0.0000 O   0  0
    2.5332   -0.8721    0.0000 N   0  0
 14 18  2  0
  4  5  1  0
  2  3  1  0
  5  6  2  0
  6  1  1  0
  8 13  1  0
 19 20  1  0
 20 21  1  0
 19 16  1  0
 16 22  1  0
 22 21  1  0
 21 23  1  0
 23 24  1  0
 24 16  1  0
  9 10  1  0
 22 25  1  0
 10 11  1  0
 22 26  1  0
 11 12  1  0
 24 27  1  6
 12 13  1  0
 27 28  1  0
  1  2  2  0
 28 29  2  0
 11 14  1  0
 28 30  1  0
  5  7  1  0
 30 31  1  0
 14 15  1  0
 31 32  1  0
  3  4  2  0
 32 33  1  0
 16 15  1  1
 33 34  1  0
  4  8  1  0
 33 35  2  0
 14 17  2  0
 33 36  2  0
  8  9  1  0
 30 37  1  1
M  END