
  Mrv0541 04051115152D          

 13 14  0  0  0  0            999 V2000
   -2.2268   -0.7859    0.0000 O   0  0  0  0  0  0  0  0  0  0  0  0
   -1.8143   -0.0715    0.0000 C   0  0  0  0  0  0  0  0  0  0  0  0
   -2.2268    0.6430    0.0000 O   0  0  0  0  0  0  0  0  0  0  0  0
   -0.9893   -0.0715    0.0000 C   0  0  0  0  0  0  0  0  0  0  0  0
   -0.5043   -0.7389    0.0000 N   0  0  0  0  0  0  0  0  0  0  0  0
   -0.5043    0.5960    0.0000 C   0  0  0  0  0  0  0  0  0  0  0  0
    0.2803    0.3410    0.0000 C   0  0  0  0  0  0  0  0  0  0  0  0
    0.9947    0.7535    0.0000 C   0  0  0  0  0  0  0  0  0  0  0  0
    1.7092    0.3410    0.0000 C   0  0  0  0  0  0  0  0  0  0  0  0
    2.4237    0.7535    0.0000 F   0  0  0  0  0  0  0  0  0  0  0  0
    1.7092   -0.4840    0.0000 C   0  0  0  0  0  0  0  0  0  0  0  0
    0.9947   -0.8965    0.0000 C   0  0  0  0  0  0  0  0  0  0  0  0
    0.2803   -0.4840    0.0000 C   0  0  0  0  0  0  0  0  0  0  0  0
  2  1  1  0  0  0  0
  2  3  2  0  0  0  0
  2  4  1  0  0  0  0
  4  5  1  0  0  0  0
  4  6  2  0  0  0  0
 13  5  1  0  0  0  0
  6  7  1  0  0  0  0
 13  7  2  0  0  0  0
  8  7  1  0  0  0  0
  8  9  2  0  0  0  0
  9 11  1  0  0  0  0
  9 10  1  0  0  0  0
 11 12  2  0  0  0  0
 12 13  1  0  0  0  0
M  END