
  SciTegic12231509382D

 45 50  0  0  0  0            999 V2000
   -7.3071    1.8268    0.0000 N   0  0
   -8.0216    1.4143    0.0000 C   0  0  1  0  0  0
   -8.0216    0.5893    0.0000 C   0  0
   -7.3071    0.1768    0.0000 N   0  0
   -6.5927    0.5893    0.0000 C   0  0
   -6.5927    1.4143    0.0000 C   0  0
   -5.8782    1.8268    0.0000 N   0  0
   -5.8782    0.1768    0.0000 C   0  0
   -5.1637    0.5893    0.0000 N   0  0
   -5.1637    1.4143    0.0000 C   0  0
   -4.4493    1.8268    0.0000 N   0  0
   -4.4493    0.1768    0.0000 O   0  0
   -3.7348    0.5893    0.0000 C   0  0
   -3.7348    1.4143    0.0000 C   0  0
   -3.0203    1.8268    0.0000 C   0  0
   -3.0203    0.1768    0.0000 C   0  0
   -2.3059    0.5893    0.0000 C   0  0
   -2.3059    1.4143    0.0000 C   0  0
   -8.7361    0.1768    0.0000 O   0  0
   -7.3071   -0.6482    0.0000 C   0  0
   -8.2351    2.2112    0.0000 C   0  0
   -9.0601    2.2112    0.0000 C   0  0
   -7.3071    2.6518    0.0000 C   0  0
   -8.0216    3.0643    0.0000 C   0  0
   -6.5927    3.0643    0.0000 C   0  0
   -4.4493   -0.6482    0.0000 C   0  0
   -1.7225    0.0059    0.0000 C   0  0
   -1.7225   -0.8191    0.0000 O   0  0
   -1.1392    0.5893    0.0000 N   0  0
   -0.4247    0.1768    0.0000 C   0  0  2  0  0  0
   -0.4247   -0.6482    0.0000 C   0  0
    0.2898   -1.0607    0.0000 C   0  0
    1.0043   -0.6482    0.0000 C   0  0  2  0  0  0
    1.0043    0.1768    0.0000 C   0  0
    0.2898    0.5893    0.0000 C   0  0
    1.7188   -1.0607    0.0000 N   0  0
    1.7188   -1.8857    0.0000 C   0  0
    2.4333   -2.2983    0.0000 C   0  0
    3.1477   -1.8858    0.0000 N   0  0
    3.1477   -1.0608    0.0000 C   0  0
    2.4332   -0.6483    0.0000 C   0  0
    3.8622   -2.2983    0.0000 C   0  0
    4.5767   -1.8858    0.0000 C   0  0
    4.7902   -1.0889    0.0000 C   0  0
    5.2027   -1.8033    0.0000 C   0  0
  1  2  1  0
  1  6  1  0
  2  3  1  0
  3  4  1  0
  4  5  1  0
  7  6  1  0
  6  5  2  0
  5  8  1  0
  7 10  2  0
  8  9  2  0
 11 10  1  0
 10  9  1  0
 11 14  1  0
 12 13  1  0
 15 14  1  0
 14 13  2  0
 13 16  1  0
 15 18  2  0
 16 17  2  0
 17 18  1  0
  3 19  2  0
  4 20  1  0
  2 21  1  1
 21 22  1  0
  1 23  1  0
 23 24  1  0
 23 25  1  0
 12 26  1  0
 17 27  1  0
 27 28  2  0
 27 29  1  0
 30 31  1  0
 30 35  1  0
 31 32  1  0
 32 33  1  0
 33 34  1  0
 34 35  1  0
 33 36  1  6
 36 37  1  0
 36 41  1  0
 37 38  1  0
 38 39  1  0
 39 40  1  0
 40 41  1  0
 39 42  1  0
 42 43  1  0
 43 44  1  0
 44 45  1  0
 43 45  1  0
 30 29  1  1
M  END