
          11280715042D 1   1.00000     0.00000     0

 28 30  0     0  0            999 V2000
    2.1250   -2.5125    0.0000 S   0  0  3  0  0  0           0  0  0
    1.6042   -2.8125    0.0000 N   0  0  3  0  0  0           0  0  0
   -1.5708   -2.6667    0.0000 N   0  0  0  0  0  0           0  0  0
    2.6542   -2.7875    0.0000 C   0  0  0  0  0  0           0  0  0
    1.7750   -1.8042    0.0000 O   0  0  0  0  0  0           0  0  0
    2.4625   -1.8042    0.0000 O   0  0  0  0  0  0           0  0  0
   -1.5208   -1.7000    0.0000 N   0  0  0  0  0  0           0  0  0
   -1.8958   -2.1667    0.0000 C   0  0  0  0  0  0           0  0  0
   -0.9875   -2.5125    0.0000 C   0  0  0  0  0  0           0  0  0
    1.6042   -3.4125    0.0000 C   0  0  0  0  0  0           0  0  0
   -0.9583   -1.9125    0.0000 C   0  0  0  0  0  0           0  0  0
    2.6792   -3.3667    0.0000 C   0  0  0  0  0  0           0  0  0
    3.1542   -2.4750    0.0000 C   0  0  0  0  0  0           0  0  0
    1.0875   -3.7125    0.0000 C   0  0  0  0  0  0           0  0  0
    3.7167   -3.3292    0.0000 C   0  0  0  0  0  0           0  0  0
    0.0417   -4.3042    0.0000 C   0  0  0  0  0  0           0  0  0
    3.6917   -2.7500    0.0000 C   0  0  0  0  0  0           0  0  0
    3.2125   -3.6417    0.0000 C   0  0  0  0  0  0           0  0  0
    4.2500   -3.6167    0.0000 Cl  0  0  0  0  0  0           0  0  0
   -0.3833   -4.7292    0.0000 Cl  0  0  0  0  0  0           0  0  0
    1.0875   -4.3042    0.0000 C   0  0  0  0  0  0           0  0  0
    0.5667   -3.4042    0.0000 C   0  0  0  0  0  0           0  0  0
    0.0417   -3.7042    0.0000 C   0  0  0  0  0  0           0  0  0
    0.5667   -4.6042    0.0000 C   0  0  0  0  0  0           0  0  0
    1.0875   -2.5125    0.0000 C   0  0  0  0  0  0           0  0  0
   -0.4708   -2.8125    0.0000 C   0  0  0  0  0  0           0  0  0
    0.5667   -2.8125    0.0000 C   0  0  0  0  0  0           0  0  0
    0.0417   -2.5125    0.0000 C   0  0  0  0  0  0           0  0  0
  2  1  1  0     0  0
  3  9  1  0     0  0
  4  1  1  0     0  0
  5  1  2  0     0  0
  6  1  2  0     0  0
  7 11  1  0     0  0
  8  3  2  0     0  0
  9 26  1  0     0  0
 10  2  1  0     0  0
 11  9  2  0     0  0
 12  4  1  0     0  0
 13  4  2  0     0  0
 14 10  1  0     0  0
 15 17  2  0     0  0
 16 23  2  0     0  0
 17 13  1  0     0  0
 18 12  2  0     0  0
 19 15  1  0     0  0
 20 16  1  0     0  0
 21 14  1  0     0  0
 22 14  2  0     0  0
 23 22  1  0     0  0
 24 21  2  0     0  0
 25  2  1  0     0  0
 26 28  1  0     0  0
 27 25  1  0     0  0
 28 27  1  0     0  0
 15 18  1  0     0  0
 24 16  1  0     0  0
  7  8  1  0     0  0
M  END