
  CDK    9/16/09,9:48

 33 37  0  0  0  0  0  0  0  0999 V2000
   14.7168  -20.9938    0.0000 N   0  0  0  0  0  0  0  0  0  0  0  0
   13.9270  -21.2518    0.0000 C   0  0  0  0  0  0  0  0  0  0  0  0
   13.9308  -22.0808    0.0000 C   0  0  0  0  0  0  0  0  0  0  0  0
   14.7204  -22.3339    0.0000 N   0  0  0  0  0  0  0  0  0  0  0  0
   15.2056  -21.6616    0.0000 C   0  0  0  0  0  0  0  0  0  0  0  0
   13.2598  -20.7711    0.0000 C   0  0  0  0  0  0  0  0  0  0  0  0
   13.3450  -19.9494    0.0000 C   0  0  0  0  0  0  0  0  0  0  0  0
   12.6769  -19.4667    0.0000 C   0  0  0  0  0  0  0  0  0  0  0  0
   11.9232  -19.8045    0.0000 N   0  0  0  0  0  0  0  0  0  0  0  0
   11.8417  -20.6298    0.0000 C   0  0  0  0  0  0  0  0  0  0  0  0
   12.5108  -21.1088    0.0000 C   0  0  0  0  0  0  0  0  0  0  0  0
   13.2664  -22.5690    0.0000 C   0  0  0  0  0  0  0  0  0  0  0  0
   12.5108  -22.2350    0.0000 C   0  0  0  0  0  0  0  0  0  0  0  0
   11.8459  -22.7221    0.0000 C   0  0  0  0  0  0  0  0  0  0  0  0
   13.3572  -23.3856    0.0000 C   0  0  0  0  0  0  0  0  0  0  0  0
   12.6954  -23.8747    0.0000 C   0  0  0  0  0  0  0  0  0  0  0  0
   11.9306  -23.5429    0.0000 C   0  0  0  0  0  0  0  0  0  0  0  0
   11.3787  -24.1678    0.0000 C   0  0  0  0  0  0  0  0  0  0  0  0
   11.8024  -24.8859    0.0000 C   0  0  0  0  0  0  0  0  0  0  0  0
   12.6162  -24.7046    0.0000 C   0  0  0  0  0  0  0  0  0  0  0  0
   10.5574  -24.0894    0.0000 N   0  0  0  0  0  0  0  0  0  0  0  0
   10.0789  -24.7615    0.0000 O   0  0  0  0  0  0  0  0  0  0  0  0
   16.0306  -21.6588    0.0000 C   0  0  0  0  0  0  0  0  0  0  0  0
   16.4455  -22.3719    0.0000 N   0  0  0  0  0  0  0  0  0  0  0  0
   16.4407  -20.9430    0.0000 O   0  0  0  0  0  0  0  0  0  0  0  0
   17.2705  -22.3691    0.0000 C   0  0  0  0  0  0  0  0  0  0  0  0
   17.6854  -23.0822    0.0000 C   0  0  0  0  0  0  0  0  0  0  0  0
   18.5104  -23.0794    0.0000 N   0  0  0  0  0  0  0  0  0  0  0  0
   18.9220  -23.7952    0.0000 C   0  0  0  0  0  0  0  0  0  0  0  0
   19.7434  -23.7944    0.0000 C   0  0  0  0  0  0  0  0  0  0  0  0
   20.1574  -23.0804    0.0000 O   0  0  0  0  0  0  0  0  0  0  0  0
   19.7437  -22.3655    0.0000 C   0  0  0  0  0  0  0  0  0  0  0  0
   18.9160  -22.3646    0.0000 C   0  0  0  0  0  0  0  0  0  0  0  0
  3 12  1  0  0  0  0 
 16 17  1  0  0  0  0 
  7  8  1  0  0  0  0 
  3  4  1  0  0  0  0 
  8  9  2  0  0  0  0 
  4  5  2  0  0  0  0 
  9 10  1  0  0  0  0 
 17 18  1  0  0  0  0 
 18 19  1  0  0  0  0 
 19 20  1  0  0  0  0 
 20 16  1  0  0  0  0 
  5  1  1  0  0  0  0 
 18 21  2  0  0  0  0 
 10 11  2  0  0  0  0 
 21 22  1  0  0  0  0 
 11  6  1  0  0  0  0 
  5 23  1  0  0  0  0 
  2  6  1  0  0  0  0 
 23 24  1  0  0  0  0 
  2  3  2  0  0  0  0 
 23 25  2  0  0  0  0 
 24 26  1  0  0  0  0 
 12 13  2  0  0  0  0 
 26 27  1  0  0  0  0 
  6  7  2  0  0  0  0 
 27 28  1  0  0  0  0 
 28 29  1  0  0  0  0 
 13 14  1  0  0  0  0 
 14 17  2  0  0  0  0 
  1  2  1  0  0  0  0 
 16 15  2  0  0  0  0 
 15 12  1  0  0  0  0 
 28 33  1  0  0  0  0 
 29 30  1  0  0  0  0 
 30 31  1  0  0  0  0 
 31 32  1  0  0  0  0 
 32 33  1  0  0  0  0 
M  END