
          11280715482D 1   1.00000     0.00000     0

 45 46  0     1  0            999 V2000
    0.9667   -4.5375    0.0000 C   0  0  0  0  0  0           0  0  0
    2.3917   -4.5375    0.0000 C   0  0  0  0  0  0           0  0  0
    0.9667   -5.3625    0.0000 C   0  0  0  0  0  0           0  0  0
    1.6792   -4.1167    0.0000 C   0  0  0  0  0  0           0  0  0
    3.1042   -4.1250    0.0000 N   0  0  0  0  0  0           0  0  0
    2.3917   -5.3625    0.0000 C   0  0  0  0  0  0           0  0  0
    1.6792   -5.7667    0.0000 C   0  0  0  0  0  0           0  0  0
    3.1042   -3.3000    0.0000 C   0  0  0  0  0  0           0  0  0
    2.6917   -0.1167    0.0000 C   0  0  0  0  0  0           0  0  0
    1.9792    0.2958    0.0000 C   0  0  0  0  0  0           0  0  0
    3.4125    0.2958    0.0000 C   0  0  2  0  0  0           0  0  0
    3.4042    1.7333    0.0000 C   0  0  0  0  0  0           0  0  0
    3.8167   -2.8875    0.0000 C   0  0  0  0  0  0           0  0  0
    1.2667   -0.1250    0.0000 C   0  0  1  0  0  0           0  0  0
    2.9917    1.0125    0.0000 O   0  0  0  0  0  0           0  0  0
   -0.1625   -3.4250    0.0000 C   0  0  0  0  0  0           0  0  0
    1.2667   -0.9500    0.0000 C   0  0  2  0  0  0           0  0  0
    0.5542   -1.3625    0.0000 C   0  0  2  0  0  0           0  0  0
    4.5375   -1.6500    0.0000 C   0  0  0  0  0  0           0  0  0
    1.6792   -3.2917    0.0000 O   0  0  0  0  0  0           0  0  0
    3.8167   -2.0625    0.0000 C   0  0  0  0  0  0           0  0  0
    2.3917   -2.8875    0.0000 O   0  0  0  0  0  0           0  0  0
    1.6792   -6.5917    0.0000 O   0  0  0  0  0  0           0  0  0
    4.1250   -0.1125    0.0000 C   0  0  2  0  0  0           0  0  0
    0.5542   -2.1875    0.0000 C   0  0  0  0  0  0           0  0  0
    0.2542   -5.7750    0.0000 N   0  0  0  0  0  0           0  0  0
    2.9917    2.4458    0.0000 O   0  0  0  0  0  0           0  0  0
    4.5375   -0.8250    0.0000 C   0  0  0  0  0  0           0  0  0
    4.2292    1.7333    0.0000 N   0  0  0  0  0  0           0  0  0
   -0.1625   -2.6000    0.0000 C   0  0  2  0  0  0           0  0  0
   -1.8875   -5.3625    0.0000 N   0  0  3  0  0  0           0  0  0
    1.9792   -1.3625    0.0000 O   0  0  0  0  0  0           0  0  0
   -0.1583   -0.9500    0.0000 O   0  0  0  0  0  0           0  0  0
    2.7000   -0.9500    0.0000 C   0  0  0  0  0  0           0  0  0
    4.6417    2.4458    0.0000 O   0  0  0  0  0  0           0  0  0
   -0.4583   -5.3625    0.0000 C   0  0  0  0  0  0           0  0  0
    4.7042    0.4708    0.0000 O   0  0  0  0  0  0           0  0  0
    4.5375   -3.3000    0.0000 C   0  0  0  0  0  0           0  0  0
    0.5542    0.2875    0.0000 C   0  0  0  0  0  0           0  0  0
   -1.1750   -5.7750    0.0000 C   0  0  0  0  0  0           0  0  0
   -0.8750   -2.1792    0.0000 C   0  0  0  0  0  0           0  0  0
   -2.6083   -5.7792    0.0000 C   0  0  0  0  0  0           0  0  0
   -1.8958   -4.5375    0.0000 C   0  0  0  0  0  0           0  0  0
   -0.8750   -1.3542    0.0000 C   0  0  0  0  0  0           0  0  0
    5.5042    0.2583    0.0000 C   0  0  0  0  0  0           0  0  0
  2  4  1  0     0  0
  3  1  2  0     0  0
  4  1  1  0     0  0
  5  2  1  0     0  0
  6  2  2  0     0  0
  7  3  1  0     0  0
  8  5  1  0     0  0
  9 10  2  0     0  0
 10 14  1  0     0  0
 11  9  1  0     0  0
 12 15  1  0     0  0
 13  8  1  0     0  0
 14 17  1  0     0  0
 11 15  1  6     0  0
 16  1  1  0     0  0
 17 18  1  0     0  0
 18 25  1  0     0  0
 19 21  1  0     0  0
 20  4  2  0     0  0
 21 13  2  0     0  0
 22  8  2  0     0  0
 23  7  2  0     0  0
 24 28  1  0     0  0
 25 30  1  0     0  0
 26  3  1  0     0  0
 27 12  2  0     0  0
 28 19  2  0     0  0
 29 12  1  0     0  0
 30 16  1  0     0  0
 31 40  1  0     0  0
 17 32  1  1     0  0
 18 33  1  6     0  0
 34  9  1  0     0  0
 35 29  1  0     0  0
 36 26  1  0     0  0
 24 37  1  1     0  0
 38 13  1  0     0  0
 14 39  1  1     0  0
 40 36  1  0     0  0
 30 41  1  1     0  0
 42 31  1  0     0  0
 43 31  1  0     0  0
 44 33  1  0     0  0
 45 37  1  0     0  0
  6  7  1  0     0  0
 24 11  1  0     0  0
M  END