
  CDK    9/16/09,10:8

 14 15  0  0  0  0  0  0  0  0999 V2000
    1.4778  -24.3197    0.0000 C   0  0  0  0  0  0  0  0  0  0  0  0
    1.4766  -25.1447    0.0000 C   0  0  0  0  0  0  0  0  0  0  0  0
    2.1895  -25.5564    0.0000 C   0  0  0  0  0  0  0  0  0  0  0  0
    2.1877  -23.9080    0.0000 C   0  0  0  0  0  0  0  0  0  0  0  0
    2.9010  -24.3160    0.0000 C   0  0  0  0  0  0  0  0  0  0  0  0
    2.8998  -25.1468    0.0000 C   0  0  0  0  0  0  0  0  0  0  0  0
    3.6147  -25.5609    0.0000 N   0  0  0  0  0  0  0  0  0  0  0  0
    4.3354  -25.1489    0.0000 C   0  0  0  0  0  0  0  0  0  0  0  0
    4.3366  -24.3181    0.0000 C   0  0  0  0  0  0  0  0  0  0  0  0
    3.6171  -23.8993    0.0000 C   0  0  0  0  0  0  0  0  0  0  0  0
    5.0501  -23.9084    0.0000 O   0  0  0  0  0  0  0  0  0  0  0  0
    5.0467  -25.5622    0.0000 O   0  0  0  0  0  0  0  0  0  0  0  0
    2.1852  -23.0853    0.0000 Cl  0  0  0  0  0  0  0  0  0  0  0  0
    0.7652  -23.9084    0.0000 F   0  0  0  0  0  0  0  0  0  0  0  0
  1  2  2  0  0  0  0 
  5  4  2  0  0  0  0 
  4  1  1  0  0  0  0 
  5 10  1  0  0  0  0 
  6  7  1  0  0  0  0 
  7  8  1  0  0  0  0 
  8  9  1  0  0  0  0 
  9 10  2  0  0  0  0 
  5  6  1  0  0  0  0 
  9 11  1  0  0  0  0 
  8 12  2  0  0  0  0 
  2  3  1  0  0  0  0 
  4 13  1  0  0  0  0 
  3  6  2  0  0  0  0 
  1 14  1  0  0  0  0 
M  END