
          01230816042D 1   1.00000     0.00000     0

 42 46  0     0  0            999 V2000
    3.3777  -18.7458    0.0000 C   0  0  0  0  0  0           0  0  0
    3.3766  -19.5732    0.0000 C   0  0  0  0  0  0           0  0  0
    4.0914  -19.9860    0.0000 C   0  0  0  0  0  0           0  0  0
    4.0896  -18.3330    0.0000 C   0  0  0  0  0  0           0  0  0
    5.4706  -20.0899    0.0000 C   0  0  0  0  0  0           0  0  0
    6.3038  -19.8700    0.0000 N   0  0  0  0  0  0           0  0  0
    6.6225  -19.1188    0.0000 N   0  0  3  0  0  0           0  0  0
    4.8052  -19.5749    0.0000 C   0  0  0  0  0  0           0  0  0
    4.8050  -18.7422    0.0000 C   0  0  0  0  0  0           0  0  0
    5.4842  -18.2003    0.0000 N   0  0  3  0  0  0           0  0  0
    6.2638  -18.3802    0.0000 C   0  0  0  0  0  0           0  0  0
    5.3016  -17.3958    0.0000 C   0  0  0  0  0  0           0  0  0
    6.7779  -17.7350    0.0000 O   0  0  0  0  0  0           0  0  0
    5.3196  -20.9010    0.0000 C   0  0  3  0  0  0           0  0  0
    4.5415  -21.1706    0.0000 C   0  0  0  0  0  0           0  0  0
    4.3903  -21.9808    0.0000 C   0  0  0  0  0  0           0  0  0
    5.0175  -22.5180    0.0000 C   0  0  0  0  0  0           0  0  0
    5.7986  -22.2394    0.0000 C   0  0  0  0  0  0           0  0  0
    5.9461  -21.4298    0.0000 C   0  0  0  0  0  0           0  0  0
    5.9070  -16.8353    0.0000 C   0  0  0  0  0  0           0  0  0
    5.7243  -16.0308    0.0000 C   0  0  3  0  0  0           0  0  0
    6.6950  -17.0794    0.0000 O   0  0  0  0  0  0           0  0  0
    5.5042  -15.2292    0.0000 C   0  0  0  0  0  0           0  0  0
    6.5245  -15.8302    0.0000 C   0  0  0  0  0  0           0  0  0
    4.9257  -16.2378    0.0000 C   0  0  0  0  0  0           0  0  0
    7.4473  -19.0978    0.0000 C   0  0  0  0  0  0           0  0  0
    7.8778  -19.8016    0.0000 C   0  0  0  0  0  0           0  0  0
    8.7025  -19.7806    0.0000 N   0  0  0  0  0  0           0  0  0
    7.4836  -20.5263    0.0000 O   0  0  0  0  0  0           0  0  0
    9.1331  -20.4843    0.0000 C   0  0  0  0  0  0           0  0  0
    8.7366  -21.2079    0.0000 C   0  0  0  0  0  0           0  0  0
    9.1665  -21.9112    0.0000 C   0  0  0  0  0  0           0  0  0
    9.9539  -20.4606    0.0000 C   0  0  0  0  0  0           0  0  0
   10.3860  -21.1609    0.0000 C   0  0  0  0  0  0           0  0  0
    9.9954  -21.8918    0.0000 C   0  0  0  0  0  0           0  0  0
   10.5698  -22.4892    0.0000 C   0  0  0  0  0  0           0  0  0
   11.3155  -22.1275    0.0000 C   0  0  0  0  0  0           0  0  0
   11.2018  -21.3066    0.0000 N   0  0  3  0  0  0           0  0  0
   11.7965  -20.7348    0.0000 C   0  0  0  0  0  0           0  0  0
   12.5890  -20.9638    0.0000 C   0  0  0  0  0  0           0  0  0
   13.1837  -20.3920    0.0000 O   0  0  0  0  0  0           0  0  0
   12.7869  -21.7648    0.0000 O   0  0  0  0  0  0           0  0  0
 12 20  1  0     0  0
  9 10  1  0     0  0
 20 21  1  0     0  0
 10 11  1  0     0  0
 20 22  2  0     0  0
 11  7  1  0     0  0
 21 23  1  0     0  0
  8  9  1  0     0  0
 21 24  1  0     0  0
  2  3  1  0     0  0
 21 25  1  0     0  0
 10 12  1  0     0  0
  7 26  1  0     0  0
  3  8  2  0     0  0
 26 27  1  0     0  0
 11 13  2  0     0  0
 27 28  1  0     0  0
  1  2  2  0     0  0
 27 29  2  0     0  0
  5 14  1  0     0  0
 28 30  1  0     0  0
  9  4  2  0     0  0
 30 31  2  0     0  0
 14 15  1  0     0  0
 31 32  1  0     0  0
 32 35  2  0     0  0
  4  1  1  0     0  0
 34 33  2  0     0  0
 33 30  1  0     0  0
 34 35  1  0     0  0
 15 16  1  0     0  0
 16 17  1  0     0  0
  5  6  2  0     0  0
 17 18  1  0     0  0
 35 36  1  0     0  0
 36 37  2  0     0  0
 37 38  1  0     0  0
 38 34  1  0     0  0
  6  7  1  0     0  0
 38 39  1  0     0  0
 18 19  1  0     0  0
 39 40  1  0     0  0
 19 14  1  0     0  0
 40 41  2  0     0  0
  5  8  1  0     0  0
 40 42  1  0     0  0
M  END