
  SciTegic12171313022D

 14 15  0  0  0  0            999 V2000
   19.7543   -5.7956    0.0000 C   0  0
   20.4663   -5.3872    0.0000 C   0  0
   20.4663   -4.5622    0.0000 C   0  0
   19.7543   -4.1456    0.0000 C   0  0
   19.0423   -5.3872    0.0000 C   0  0
   19.0377   -4.5623    0.0000 C   0  0
   18.2518   -4.3116    0.0000 N   0  0
   17.7705   -4.9817    0.0000 C   0  0
   18.2591   -5.6464    0.0000 C   0  0
   18.0085   -6.4324    0.0000 C   0  0
   16.9455   -4.9863    0.0000 C   0  0
   16.5290   -4.2742    0.0000 O   0  0
   16.5370   -5.7031    0.0000 O   0  0
   19.7543   -6.6206    0.0000 O   0  0
  6  4  1  0
  5  1  1  0
  1  2  1  0
  2  3  1  0
  3  4  1  0
  5  6  2  0
  6  7  1  0
  7  8  1  0
  8  9  2  0
  9  5  1  0
  9 10  1  0
  8 11  1  0
 11 12  1  0
 11 13  2  0
  1 14  2  0
M  END