
  SciTegic05221516342D

 50 47  0  0  0  0            999 V2000
   13.7999   -5.6708    0.0000 C   0  0
   14.5076   -5.2622    0.0000 C   0  0
   15.2153   -5.6708    0.0000 C   0  0
   15.9230   -5.2622    0.0000 N   0  0
   16.6307   -5.6708    0.0000 C   0  0
   17.3384   -5.2622    0.0000 N   0  0
   16.6307   -6.4880    0.0000 N   0  3
    3.8920   -5.6708    0.0000 C   0  0
    4.5997   -5.2622    0.0000 C   0  0
    3.1843   -5.2622    0.0000 N   0  0
    2.4766   -5.6708    0.0000 C   0  0
    1.7689   -5.2622    0.0000 N   0  0
    2.4766   -6.4880    0.0000 N   0  3
    5.3074   -5.6708    0.0000 C   0  0
    6.0151   -5.2622    0.0000 C   0  0
    6.7228   -5.6708    0.0000 C   0  0
    7.4305   -5.2622    0.0000 C   0  0
    8.1382   -5.6708    0.0000 C   0  0
    8.8459   -5.2622    0.0000 C   0  0
    9.5536   -5.6708    0.0000 N   0  3
   10.2614   -5.2622    0.0000 C   0  0
   10.9691   -5.6708    0.0000 C   0  0
   11.6768   -5.2622    0.0000 C   0  0
   12.3845   -5.6708    0.0000 C   0  0
   13.0922   -5.2622    0.0000 C   0  0
   17.3384   -4.4450    0.0000 C   0  0
   18.0461   -4.0364    0.0000 C   0  0
   18.8612   -4.0364    0.0000 C   0  0
   18.4526   -3.3287    0.0000 C   0  0
    5.3945   -8.7843    0.0000 C   0  0
    6.1022   -8.3757    0.0000 C   0  0
    4.6868   -8.3757    0.0000 F   0  0
    5.3945   -9.6015    0.0000 F   0  0
    4.6846   -9.1888    0.0000 F   0  0
    6.8099   -8.7843    0.0000 O   0  5
    6.1022   -7.5585    0.0000 O   0  0
   10.4461   -9.2300    0.0000 C   0  0
   11.1538   -8.8214    0.0000 C   0  0
    9.7384   -8.8214    0.0000 F   0  0
   10.4461  -10.0472    0.0000 F   0  0
    9.7362   -9.6345    0.0000 F   0  0
   11.8615   -9.2300    0.0000 O   0  5
   11.1538   -8.0042    0.0000 O   0  0
   14.5567   -9.4776    0.0000 C   0  0
   15.2644   -9.0690    0.0000 C   0  0
   13.8490   -9.0690    0.0000 F   0  0
   14.5567  -10.2948    0.0000 F   0  0
   13.8468   -9.8821    0.0000 F   0  0
   15.9721   -9.4776    0.0000 O   0  5
   15.2644   -8.2519    0.0000 O   0  0
  1  2  1  0
  2  3  1  0
  3  4  1  0
  4  5  1  0
  5  6  1  0
  5  7  2  0
  8  9  1  0
  8 10  1  0
 10 11  1  0
 11 12  1  0
 11 13  2  0
  9 14  1  0
 14 15  1  0
 15 16  1  0
 16 17  1  0
 17 18  1  0
 18 19  1  0
 19 20  1  0
 20 21  1  0
 21 22  1  0
 22 23  1  0
 23 24  1  0
 24 25  1  0
 25  1  1  0
  6 26  1  0
 26 27  1  0
 28 27  1  0
 29 28  1  0
 27 29  1  0
 30 31  1  0
 30 32  1  0
 30 33  1  0
 30 34  1  0
 31 35  1  0
 31 36  2  0
 37 38  1  0
 37 39  1  0
 37 40  1  0
 37 41  1  0
 38 42  1  0
 38 43  2  0
 44 45  1  0
 44 46  1  0
 44 47  1  0
 44 48  1  0
 45 49  1  0
 45 50  2  0
M  CHG  6   7   1  13   1  20   1  35  -1  42  -1  49  -1
M  END