
  SciTegic12091613522D

 43 47  0  0  0  0            999 V2000
   -2.6111    0.7486    0.0000 C   0  0
   -2.6111   -0.7486    0.0000 C   0  0
   -1.2964   -1.4973    0.0000 C   0  0
   -1.2964    1.4973    0.0000 C   0  0
    0.0000    0.7486    0.0000 C   0  0
    0.0000   -0.7486    0.0000 C   0  0
    1.2964   -1.4973    0.0000 C   0  0
    2.5929   -0.7486    0.0000 C   0  0
    2.5929    0.7486    0.0000 C   0  0
    1.2964    1.4973    0.0000 O   0  0
    1.2964   -2.6973    0.0000 O   0  0
    3.8942   -1.4964    0.0000 C   0  0
   14.9760    0.8836    0.0000 C   0  0
   15.9766   -0.2273    0.0000 C   0  0
   15.5136   -1.6748    0.0000 C   0  0
   13.4882    0.5740    0.0000 C   0  0
   13.0388   -0.8612    0.0000 C   0  0
   14.0393   -1.9721    0.0000 C   0  0
   13.2876   -3.2625    0.0000 N   0  0
   11.8199   -2.9405    0.0000 C   0  0
   11.6941   -1.4828    0.0000 C   0  0
   10.3928   -0.7351    0.0000 C   0  0
    9.0941   -1.4873    0.0000 N   0  0
    7.7928   -0.7396    0.0000 C   0  0
    6.4942   -1.4919    0.0000 C   0  0
    5.1929   -0.7441    0.0000 N   0  0
   10.3907    0.4649    0.0000 O   0  0
    3.8963   -2.6964    0.0000 O   0  0
   13.8909   -4.6367    0.0000 C   0  0
   13.0992   -5.9048    0.0000 C   0  0
   13.8047   -7.2285    0.0000 C   0  0
   15.3038   -7.2794    0.0000 C   0  0
   16.0974   -6.0066    0.0000 C   0  0
   15.3919   -4.6828    0.0000 C   0  0
   17.5974   -6.0575    0.0000 C   0  0
   18.1625   -7.1161    0.0000 F   0  0
   18.2320   -5.0390    0.0000 F   0  0
   18.7967   -6.0976    0.0000 F   0  0
    5.1908    0.4559    0.0000 C   0  0
   15.4462    2.3088    0.0000 N   0  3
   14.6480    3.2048    0.0000 O   0  0
   16.6212    2.5526    0.0000 O   0  5
    9.0962   -2.6873    0.0000 C   0  0
  1  2  2  0
  2  3  1  0
  3  6  2  0
  5  4  2  0
  4  1  1  0
  5  6  1  0
  5 10  1  0
  6  7  1  0
  7  8  1  0
  8  9  2  0
  9 10  1  0
  7 11  2  0
  8 12  1  0
 13 14  2  0
 14 15  1  0
 15 18  2  0
 17 16  2  0
 16 13  1  0
 17 18  1  0
 18 19  1  0
 19 20  1  0
 20 21  2  0
 21 17  1  0
 21 22  1  0
 22 23  1  0
 23 24  1  0
 24 25  1  0
 25 26  1  0
 26 12  1  0
 22 27  2  0
 12 28  2  0
 29 30  2  0
 30 31  1  0
 31 32  2  0
 32 33  1  0
 33 34  2  0
 34 29  1  0
 19 29  1  0
 35 36  1  0
 35 37  1  0
 35 38  1  0
 33 35  1  0
 26 39  1  0
 40 41  2  0
 40 42  1  0
 13 40  1  0
 23 43  1  0
M  CHG  2  40   1  42  -1
M  END