
  SciTegic03291108502D

 13 14  0  0  0  0            999 V2000
    2.4127   -2.8074    0.0000 Cl  0  0
    0.7280    0.6470    0.0000 S   0  0
   -0.3520   -0.1376    0.0000 N   0  0
   -0.6069    0.6470    0.0000 N   0  0
    0.0605    1.9569    0.0000 N   0  0
    0.4730   -0.1376    0.0000 C   0  0
    0.9580   -0.8051    0.0000 C   0  0
    0.0605    1.1319    0.0000 C   0  0
    1.7784   -0.7188    0.0000 C   0  0
    0.6224   -1.5587    0.0000 C   0  0
    1.9278   -2.1399    0.0000 C   0  0
    2.2634   -1.3863    0.0000 C   0  0
    1.1073   -2.2262    0.0000 C   0  0
  1 11  1  0
  2  6  1  0
  2  8  1  0
  3  4  1  0
  3  6  2  0
  4  8  2  0
  5  8  1  0
  6  7  1  0
  7  9  2  0
  7 10  1  0
  9 12  1  0
 10 13  2  0
 11 12  2  0
 11 13  1  0
M  END