
  SciTegic05061116452D

 39 43  0  0  0  0            999 V2000
   -4.7675  -14.8192    0.0000 C   0  0
   -4.0529  -14.4066    0.0000 N   0  0
   -3.3383  -14.8192    0.0000 C   0  0  1  0  0  0
   -3.3383  -15.6443    0.0000 C   0  0
   -2.6237  -14.4066    0.0000 C   0  0
   -1.9095  -14.8195    0.0000 N   0  0
   -2.6237  -13.5815    0.0000 O   0  0
   -1.1558  -14.4838    0.0000 C   0  0
   -1.1294  -13.6669    0.0000 C   0  0
   -0.4688  -13.1693    0.0000 C   0  0
   -0.5233  -15.0217    0.0000 C   0  0
    0.3298  -13.3717    0.0000 C   0  0
   -0.7305  -15.8204    0.0000 O   0  0
    0.6641  -14.1248    0.0000 C   0  0  2  0  0  0
    0.2861  -14.8585    0.0000 N   0  0
    0.8671  -15.4447    0.0000 C   0  0  1  0  0  0
    1.6042  -15.0732    0.0000 C   0  0
    1.4785  -14.2576    0.0000 C   0  0  2  0  0  0
    0.9565  -13.3479    0.0000 H   0  0
    0.8835  -16.2695    0.0000 C   0  0
    0.1772  -16.6962    0.0000 O   0  0
    1.6062  -16.6679    0.0000 N   0  0
    2.0646  -13.6767    0.0000 C   0  0
    2.8880  -13.6731    0.0000 C   0  0
    3.3009  -14.3867    0.0000 C   0  0
    4.1236  -14.3834    0.0000 C   0  0
    4.5330  -13.6681    0.0000 C   0  0
    4.1137  -12.9545    0.0000 C   0  0
    3.2924  -12.9612    0.0000 C   0  0
    2.3124  -16.2413    0.0000 C   0  0  2  0  0  0
    3.7241  -15.3963    0.0000 C   0  0
    3.0016  -14.9958    0.0000 C   0  0
    2.2912  -15.4207    0.0000 C   0  0
    3.7361  -16.2217    0.0000 C   0  0
    3.0334  -16.6431    0.0000 C   0  0
    3.0480  -17.4605    0.0000 C   0  0
    3.7645  -17.8575    0.0000 C   0  0
    4.4678  -17.4310    0.0000 C   0  0
    4.4498  -16.6151    0.0000 C   0  0
 14 19  1  6
  9 10  1  0
 16 20  1  1
  2  3  1  0
 20 21  2  0
  8 11  1  0
 20 22  1  0
  5  6  1  0
 18 23  1  1
 10 12  1  0
 23 24  1  0
 11 15  1  0
 24 25  2  0
 12 14  1  0
 25 26  1  0
  1  2  1  0
 26 27  2  0
 11 13  2  0
 27 28  1  0
 14 15  1  0
 28 29  2  0
 29 24  1  0
  5  7  2  0
 30 22  1  6
 30 35  1  0
  3  4  1  6
  6  8  1  0
 30 33  1  0
 34 31  1  0
 31 32  1  0
 32 33  1  0
  8  9  1  0
 15 16  1  0
 34 35  2  0
 16 17  1  0
 35 36  1  0
 17 18  1  0
 36 37  2  0
 18 14  1  0
 37 38  1  0
  3  5  1  0
 38 39  2  0
 39 34  1  0
M  END