
  Mrv0541 04051115152D          

 14 16  0  0  0  0            999 V2000
    0.8866    1.7796    0.0000 O   0  0  0  0  0  0  0  0  0  0  0  0
    0.4111    1.1054    0.0000 C   0  0  0  0  0  0  0  0  0  0  0  0
    0.7165    0.2483    0.0000 C   0  0  0  0  0  0  0  0  0  0  0  0
    1.4290   -0.1642    0.0000 C   0  0  0  0  0  0  0  0  0  0  0  0
   -0.0014   -0.1642    0.0000 C   0  0  0  0  0  0  0  0  0  0  0  0
   -0.7139    0.2483    0.0000 C   0  0  0  0  0  0  0  0  0  0  0  0
   -0.4139    1.1054    0.0000 C   0  0  0  0  0  0  0  0  0  0  0  0
   -0.8913    1.7783    0.0000 O   0  0  0  0  0  0  0  0  0  0  0  0
   -1.4264   -0.1642    0.0000 C   0  0  0  0  0  0  0  0  0  0  0  0
   -0.0014   -0.9892    0.0000 C   0  0  0  0  0  0  0  0  0  0  0  0
    0.7165   -1.4017    0.0000 C   0  0  0  0  0  0  0  0  0  0  0  0
    1.4290   -0.9892    0.0000 C   0  0  0  0  0  0  0  0  0  0  0  0
   -0.7139   -1.4017    0.0000 C   0  0  0  0  0  0  0  0  0  0  0  0
   -1.4264   -0.9892    0.0000 C   0  0  0  0  0  0  0  0  0  0  0  0
  2  1  2  0  0  0  0
  2  3  1  0  0  0  0
  2  7  1  0  0  0  0
  4  3  2  0  0  0  0
  3  5  1  0  0  0  0
 12  4  1  0  0  0  0
  6  5  1  0  0  0  0
 10  5  2  0  0  0  0
  7  6  1  0  0  0  0
  6  9  2  0  0  0  0
  7  8  2  0  0  0  0
  9 14  1  0  0  0  0
 10 11  1  0  0  0  0
 13 10  1  0  0  0  0
 11 12  2  0  0  0  0
 14 13  2  0  0  0  0
M  END