
  Mrv0541 05211314572D          

 38 42  0  0  0  0            999 V2000
    5.5181   -6.3861    0.0000 C   0  0  0  0  0  0  0  0  0  0  0  0
    6.2326   -6.7986    0.0000 C   0  0  0  0  0  0  0  0  0  0  0  0
    6.9471   -6.3861    0.0000 C   0  0  0  0  0  0  0  0  0  0  0  0
    7.6616   -6.7986    0.0000 N   0  0  0  0  0  0  0  0  0  0  0  0
    6.9471   -5.5611    0.0000 O   0  0  0  0  0  0  0  0  0  0  0  0
    8.3760   -6.3861    0.0000 C   0  0  0  0  0  0  0  0  0  0  0  0
    9.0905   -6.7986    0.0000 C   0  0  0  0  0  0  0  0  0  0  0  0
    9.0905   -7.6236    0.0000 N   0  0  0  0  0  0  0  0  0  0  0  0
    8.3760   -8.0361    0.0000 C   0  0  0  0  0  0  0  0  0  0  0  0
    7.6616   -7.6236    0.0000 C   0  0  0  0  0  0  0  0  0  0  0  0
    9.8050   -8.0361    0.0000 C   0  0  0  0  0  0  0  0  0  0  0  0
   10.5194   -7.6236    0.0000 C   0  0  0  0  0  0  0  0  0  0  0  0
   11.2339   -8.0361    0.0000 C   0  0  0  0  0  0  0  0  0  0  0  0
   11.2339   -8.8611    0.0000 C   0  0  0  0  0  0  0  0  0  0  0  0
   10.5194   -9.2736    0.0000 C   0  0  0  0  0  0  0  0  0  0  0  0
    9.8050   -8.8611    0.0000 C   0  0  0  0  0  0  0  0  0  0  0  0
   11.9484   -9.2736    0.0000 N   0  3  0  0  0  0  0  0  0  0  0  0
   11.9484  -10.0986    0.0000 O   0  0  0  0  0  0  0  0  0  0  0  0
   12.6629   -8.8611    0.0000 O   0  5  0  0  0  0  0  0  0  0  0  0
    4.8037   -6.7986    0.0000 N   0  0  0  0  0  0  0  0  0  0  0  0
    4.8037   -7.6236    0.0000 C   0  0  0  0  0  0  0  0  0  0  0  0
    4.0892   -6.3861    0.0000 C   0  0  0  0  0  0  0  0  0  0  0  0
    3.3747   -6.7986    0.0000 C   0  0  0  0  0  0  0  0  0  0  0  0
    2.6603   -6.3861    0.0000 C   0  0  0  0  0  0  0  0  0  0  0  0
    1.3546   -6.1086    0.0000 C   0  0  0  0  0  0  0  0  0  0  0  0
    1.9066   -6.7217    0.0000 C   0  0  0  0  0  0  0  0  0  0  0  0
    1.6516   -7.5063    0.0000 C   0  0  0  0  0  0  0  0  0  0  0  0
    0.8447   -7.6778    0.0000 C   0  0  0  0  0  0  0  0  0  0  0  0
    0.2926   -7.0647    0.0000 C   0  0  0  0  0  0  0  0  0  0  0  0
    0.5476   -6.2801    0.0000 C   0  0  0  0  0  0  0  0  0  0  0  0
    2.5740   -5.5656    0.0000 C   0  0  0  0  0  0  0  0  0  0  0  0
    1.7671   -5.3941    0.0000 C   0  0  0  0  0  0  0  0  0  0  0  0
    1.5121   -4.6095    0.0000 C   0  0  0  0  0  0  0  0  0  0  0  0
    2.0641   -3.9964    0.0000 C   0  0  0  0  0  0  0  0  0  0  0  0
    2.8711   -4.1679    0.0000 C   0  0  0  0  0  0  0  0  0  0  0  0
    3.1261   -4.9525    0.0000 C   0  0  0  0  0  0  0  0  0  0  0  0
    4.0892   -8.0361    0.0000 C   0  0  0  0  0  0  0  0  0  0  0  0
    5.5181   -8.0361    0.0000 C   0  0  0  0  0  0  0  0  0  0  0  0
 17 19  1  0  0  0  0
 14 17  1  0  0  0  0
  8  9  1  0  0  0  0
  1 20  1  0  0  0  0
  9 10  1  0  0  0  0
 20 21  1  0  0  0  0
  4  6  1  0  0  0  0
 20 22  1  0  0  0  0
  8 11  1  0  0  0  0
 22 23  1  0  0  0  0
  2  3  1  0  0  0  0
 23 24  1  0  0  0  0
 24 26  1  0  0  0  0
 25 32  1  0  0  0  0
 31 24  1  0  0  0  0
 25 26  2  0  0  0  0
 11 12  2  0  0  0  0
  1  2  1  0  0  0  0
 12 13  1  0  0  0  0
  3  4  1  0  0  0  0
 13 14  2  0  0  0  0
 25 30  1  0  0  0  0
 26 27  1  0  0  0  0
 27 28  2  0  0  0  0
 28 29  1  0  0  0  0
 29 30  2  0  0  0  0
 31 32  2  0  0  0  0
 14 15  1  0  0  0  0
  3  5  2  0  0  0  0
 15 16  2  0  0  0  0
 16 11  1  0  0  0  0
  4 10  1  0  0  0  0
  6  7  1  0  0  0  0
 31 36  1  0  0  0  0
 32 33  1  0  0  0  0
 33 34  2  0  0  0  0
 34 35  1  0  0  0  0
 35 36  2  0  0  0  0
  7  8  1  0  0  0  0
 21 37  1  0  0  0  0
 17 18  2  0  0  0  0
 21 38  1  0  0  0  0
M  CHG  2  17   1  19  -1
M  END