
  SciTegic12011114592D

 41 46  0  0  0  0            999 V2000
   -1.1005  -22.0520    0.0000 N   0  0
   -0.3852  -21.6422    0.0000 C   0  0
   -0.3824  -20.8163    0.0000 N   0  0
   -1.1007  -20.4018    0.0000 C   0  0
   -1.1012  -19.5767    0.0000 N   0  0
   -0.3865  -19.1636    0.0000 C   0  0
    0.3278  -22.0572    0.0000 S   0  0
    1.0438  -21.6471    0.0000 C   0  0
    1.7528  -22.0652    0.0000 C   0  0
    2.4682  -21.6558    0.0000 C   0  0
    2.4715  -20.8298    0.0000 C   0  0
    1.7533  -20.4150    0.0000 C   0  0
    1.0408  -20.8268    0.0000 C   0  0
    3.1868  -20.4188    0.0000 N   0  0
    0.3992  -19.4118    0.0000 C   0  0
    0.8784  -18.7401    0.0000 C   0  0
    0.3875  -18.0768    0.0000 N   0  0
   -0.3948  -18.3386    0.0000 N   0  0
    1.7034  -18.7329    0.0000 C   0  0
   -2.5875  -20.5627    0.0000 C   0  0
   -3.0686  -21.2239    0.0000 C   0  0
   -2.5884  -21.8857    0.0000 C   0  0
   -1.8105  -21.6336    0.0000 N   0  0
   -1.8099  -20.8158    0.0000 C   0  0
    3.9005  -20.8328    0.0000 C   0  0
    4.6160  -20.4218    0.0000 C   0  0
    5.3296  -20.8362    0.0000 N   0  0
    3.8988  -21.6579    0.0000 O   0  0
    5.3210  -21.6568    0.0000 C   0  0
    6.1028  -21.9202    0.0000 C   0  0  1  0  0  0
    6.5951  -21.2580    0.0000 C   0  0  1  0  0  0
    6.1173  -20.5853    0.0000 C   0  0
    7.4201  -21.2669    0.0000 O   0  0
    6.3493  -22.7076    0.0000 O   0  0
    7.1746  -22.7061    0.0000 C   0  0
    7.5853  -23.4204    0.0000 C   0  0
    8.4097  -23.4198    0.0000 C   0  0
    8.8222  -22.7043    0.0000 C   0  0
    8.4045  -21.9878    0.0000 C   0  0
    7.5815  -21.9919    0.0000 C   0  0
    9.6473  -22.7022    0.0000 F   0  0
 16 19  1  0
 23 24  1  0
  8  9  2  0
  4 24  1  0
 21 22  2  0
  9 10  1  0
  1  2  2  0
 10 11  2  0
 20 21  1  0
 22 23  1  0
 24 20  2  0
  4  5  1  0
 14 25  1  0
 11 12  1  0
 25 26  1  0
 23  1  1  0
 26 27  1  0
 12 13  2  0
 25 28  2  0
 27 29  1  0
 13  8  1  0
  5  6  1  0
 11 14  1  0
 17 18  1  0
 29 30  1  0
 30 31  1  0
 31 32  1  0
 32 27  1  0
  2  3  1  0
 31 33  1  1
 15 16  2  0
 30 34  1  1
  2  7  1  0
 34 35  1  0
 35 36  2  0
  7  8  1  0
 36 37  1  0
  6 15  1  0
 37 38  2  0
 16 17  1  0
 38 39  1  0
 18  6  2  0
 39 40  2  0
 40 35  1  0
  3  4  2  0
 38 41  1  0
M  END