
  CDK    9/16/09,10:7

 21 23  0  0  0  0  0  0  0  0999 V2000
   16.2600  -15.8155    0.0000 C   0  0  0  0  0  0  0  0  0  0  0  0
   16.9701  -15.3987    0.0000 C   0  0  0  0  0  0  0  0  0  0  0  0
   16.9641  -14.5797    0.0000 C   0  0  0  0  0  0  0  0  0  0  0  0
   16.2496  -14.1715    0.0000 O   0  0  0  0  0  0  0  0  0  0  0  0
   15.5395  -14.5884    0.0000 C   0  0  0  0  0  0  0  0  0  0  0  0
   15.5438  -15.4135    0.0000 C   0  0  0  0  0  0  0  0  0  0  0  0
   12.6939  -16.2462    0.0000 C   0  0  0  0  0  0  0  0  0  0  0  0
   12.6926  -17.0734    0.0000 N   0  0  0  0  0  0  0  0  0  0  0  0
   13.4054  -17.4862    0.0000 C   0  0  0  0  0  0  0  0  0  0  0  0
   14.1244  -17.0730    0.0000 C   0  0  0  0  0  0  0  0  0  0  0  0
   14.1213  -16.2422    0.0000 C   0  0  0  0  0  0  0  0  0  0  0  0
   13.4034  -15.8336    0.0000 C   0  0  0  0  0  0  0  0  0  0  0  0
   14.8334  -15.8263    0.0000 N   0  0  0  0  0  0  0  0  0  0  0  0
   15.5496  -16.2351    0.0000 C   0  0  0  0  0  0  0  0  0  0  0  0
   15.5537  -17.0598    0.0000 O   0  0  0  0  0  0  0  0  0  0  0  0
   16.9780  -16.2281    0.0000 C   0  0  0  0  0  0  0  0  0  0  0  0
   16.9805  -17.0536    0.0000 C   0  0  0  0  0  0  0  0  0  0  0  0
   17.6959  -17.4624    0.0000 C   0  0  0  0  0  0  0  0  0  0  0  0
   18.4090  -17.0465    0.0000 C   0  0  0  0  0  0  0  0  0  0  0  0
   18.4023  -16.2175    0.0000 C   0  0  0  0  0  0  0  0  0  0  0  0
   17.6862  -15.8126    0.0000 C   0  0  0  0  0  0  0  0  0  0  0  0
 10 11  1  0  0  0  0 
  4  5  1  0  0  0  0 
 11 12  2  0  0  0  0 
 12  7  1  0  0  0  0 
  5  6  1  0  0  0  0 
 11 13  1  0  0  0  0 
 13 14  1  0  0  0  0 
  1  2  1  0  0  0  0 
 14 15  2  0  0  0  0 
 14  1  1  0  0  0  0 
  7  8  2  0  0  0  0 
  1 16  1  0  0  0  0 
  1  6  1  0  0  0  0 
 16 17  2  0  0  0  0 
  8  9  1  0  0  0  0 
 17 18  1  0  0  0  0 
  2  3  1  0  0  0  0 
 18 19  2  0  0  0  0 
  9 10  2  0  0  0  0 
 19 20  1  0  0  0  0 
  3  4  1  0  0  0  0 
 20 21  2  0  0  0  0 
 21 16  1  0  0  0  0 
M  END