
  SciTegic04091414352D

 28 31  0  0  0  0            999 V2000
   24.7840   -2.7116    0.0000 C   0  0  1  0  0  0
   25.6053   -2.7116    0.0000 C   0  0  2  0  0  0
   25.8597   -1.9308    0.0000 C   0  0  1  0  0  0
   25.1967   -1.4445    0.0000 O   0  0
   24.5338   -1.9308    0.0000 C   0  0  2  0  0  0
   26.6413   -1.6793    0.0000 N   0  0
   23.7524   -1.6786    0.0000 C   0  0
   27.2547   -2.2261    0.0000 C   0  0
   28.0336   -1.9776    0.0000 C   0  0
   28.2088   -1.1750    0.0000 C   0  0
   27.5988   -0.6211    0.0000 N   0  0
   26.8176   -0.8740    0.0000 C   0  0
   26.2084   -0.3206    0.0000 O   0  0
   28.9914   -0.9265    0.0000 N   0  0
   26.0890   -3.3774    0.0000 O   0  0
   24.2987   -3.3762    0.0000 O   0  0
   23.1462   -2.2266    0.0000 N   0  0
   22.3685   -1.9757    0.0000 C   0  0
   21.7623   -2.5237    0.0000 C   0  0
   22.1970   -1.1767    0.0000 O   0  0
   21.9338   -3.3227    0.0000 C   0  0
   21.3863   -3.9268    0.0000 N   0  0
   22.6791   -3.6493    0.0000 C   0  0
   22.5954   -4.4621    0.0000 N   0  0
   21.7966   -4.6322    0.0000 C   0  0
   21.7114   -5.4445    0.0000 S   0  0
   22.4577   -5.7765    0.0000 C   0  0
   23.0039   -5.1693    0.0000 C   0  0
  1  2  1  0
  2  3  1  0
  3  4  1  0
  4  5  1  0
  5  1  1  0
  3  6  1  1
  5  7  1  1
  6  8  1  0
  6 12  1  0
  8  9  2  0
  9 10  1  0
 10 11  2  0
 11 12  1  0
 12 13  2  0
 10 14  1  0
  2 15  1  6
  1 16  1  6
  7 17  1  0
 17 18  1  0
 18 19  1  0
 18 20  2  0
 19 21  1  0
 21 22  1  0
 22 25  2  0
 24 23  1  0
 23 21  2  0
 24 25  1  0
 25 26  1  0
 26 27  1  0
 27 28  2  0
 28 24  1  0
M  END