
  SciTegic09261414462D

 55 57  0  0  0  0            999 V2000
   34.5141  -32.4759    0.0000 C   0  0
   37.3731  -32.4741    0.0000 N   0  0
   38.0876  -32.8866    0.0000 C   0  0  2  0  0  0
   38.8021  -32.4741    0.0000 C   0  0
   38.0876  -33.7116    0.0000 C   0  0
   39.5165  -32.8866    0.0000 N   0  0
   38.8021  -31.6491    0.0000 O   0  0
   40.2310  -32.4741    0.0000 C   0  0  2  0  0  0
   40.9455  -32.8866    0.0000 C   0  0
   40.2310  -31.6491    0.0000 C   0  0
   40.9455  -33.7116    0.0000 O   0  0
   41.6599  -32.4741    0.0000 N   0  0
   42.3744  -32.8866    0.0000 C   0  0  2  0  0  0
   43.0889  -32.4741    0.0000 C   0  0
   42.3744  -33.7116    0.0000 C   0  0
   43.8034  -32.8866    0.0000 N   0  0
   43.0889  -31.6491    0.0000 O   0  0
   43.0889  -34.1241    0.0000 C   0  0
   43.0889  -34.9491    0.0000 C   0  0
   43.8034  -35.3616    0.0000 C   0  0
   43.8034  -36.1866    0.0000 N   0  3
   44.5178  -36.5990    0.0000 C   0  0
   43.0889  -36.5991    0.0000 C   0  0
   43.7966  -37.0074    0.0000 C   0  0
   44.5178  -32.4740    0.0000 C   0  0
   45.2323  -32.8865    0.0000 C   0  0
   44.5178  -31.6490    0.0000 C   0  0
   45.2323  -31.2365    0.0000 O   0  0
   45.9468  -32.4740    0.0000 O   0  0
   36.6586  -32.8866    0.0000 C   0  0
   35.9442  -32.4741    0.0000 C   0  0  2  0  0  0
   36.6586  -33.7116    0.0000 O   0  0
   35.9442  -31.6491    0.0000 C   0  0
   35.2297  -32.8866    0.0000 N   0  0
   36.6586  -31.2366    0.0000 C   0  0
   37.3729  -31.6516    0.0000 C   0  0
   38.0869  -31.2398    0.0000 C   0  0
   38.0873  -30.4139    0.0000 C   0  0
   37.3678  -30.0016    0.0000 C   0  0
   36.6568  -30.4158    0.0000 C   0  0
   33.8008  -32.8866    0.0000 C   0  0
   33.0867  -32.4711    0.0000 C   0  0
   32.3728  -32.8829    0.0000 C   0  0
   32.3723  -33.7088    0.0000 C   0  0
   33.0918  -34.1211    0.0000 C   0  0
   33.8029  -33.7070    0.0000 C   0  0
   34.5136  -31.6509    0.0000 O   0  0
   31.6584  -34.1223    0.0000 C   0  0
   30.9434  -33.7107    0.0000 O   0  0
   31.6595  -34.9473    0.0000 O   0  0
   30.2295  -34.1242    0.0000 C   0  0
   40.8947  -31.1611    0.0000 C   0  0
   40.6398  -30.3765    0.0000 C   0  0
   39.8148  -30.3765    0.0000 C   0  0
   39.5599  -31.1612    0.0000 C   0  0
  2  3  1  0
  3  4  1  0
  3  5  1  6
  4  6  1  0
  4  7  2  0
  6  8  1  0
  8  9  1  0
  8 10  1  1
  9 11  2  0
  9 12  1  0
 12 13  1  0
 13 14  1  0
 13 15  1  6
 14 16  1  0
 14 17  2  0
 15 18  1  0
 18 19  1  0
 19 20  1  0
 20 21  1  0
 21 22  1  0
 21 23  1  0
 21 24  1  0
 16 25  1  0
 25 26  1  0
 25 27  1  0
 27 28  1  0
 26 29  1  0
  2 30  1  0
 30 31  1  0
 30 32  2  0
 31 33  1  1
 31 34  1  0
 33 35  1  0
 35 36  2  0
 36 37  1  0
 37 38  2  0
 38 39  1  0
 39 40  2  0
 40 35  1  0
 34  1  1  0
  1 41  1  0
 41 42  2  0
 42 43  1  0
 43 44  2  0
 44 45  1  0
 45 46  2  0
 46 41  1  0
  1 47  2  0
 44 48  1  0
 48 49  1  0
 48 50  2  0
 49 51  1  0
 10 52  1  0
 52 53  1  0
 53 54  1  0
 54 55  1  0
 55 10  1  0
M  CHG  1  21   1
M  END