
  SciTegic01161211232D

 31 34  0  0  0  0            999 V2000
   18.0059   -8.0988    0.0000 C   0  0
   18.6676   -7.6055    0.0000 N   0  0
   18.4030   -6.8237    0.0000 C   0  0
   17.5776   -6.8338    0.0000 C   0  0
   17.3324   -7.6212    0.0000 N   0  0
   16.6180   -8.0269    0.0000 C   0  0
   15.9070   -7.6063    0.0000 C   0  0
   15.1894   -8.0118    0.0000 C   0  0
   15.1816   -8.8376    0.0000 C   0  0
   15.8974   -9.2564    0.0000 C   0  0
   16.6121   -8.8485    0.0000 C   0  0
   18.8071   -6.1040    0.0000 C   0  0
   19.6321   -6.0940    0.0000 N   0  0
   18.3860   -5.3945    0.0000 O   0  0
   20.0359   -5.3746    0.0000 N   0  0
   20.8628   -5.3699    0.0000 C   0  0
   21.2668   -4.6564    0.0000 C   0  0
   20.8495   -3.9477    0.0000 C   0  0
   20.0234   -3.9540    0.0000 C   0  0
   19.6154   -4.6772    0.0000 C   0  0
   18.0181   -8.9217    0.0000 C   0  0
   17.3071   -9.3423    0.0000 C   0  0
   17.3168  -10.1664    0.0000 C   0  0
   18.0367  -10.5710    0.0000 C   0  0
   18.7485  -10.1454    0.0000 C   0  0
   18.7353   -9.3226    0.0000 C   0  0
   14.4640   -9.2447    0.0000 Cl  0  0
   19.4435   -8.8995    0.0000 Cl  0  0
   18.0479  -11.3959    0.0000 Cl  0  0
   17.0841   -6.1743    0.0000 C   0  0
   16.5910   -5.5129    0.0000 N   0  0
 13 15  1  0
 15 16  1  0
  7  8  1  0
  3  4  2  0
  8  9  2  0
  4  5  1  0
  9 10  1  0
 15 20  1  0
 16 17  1  0
 17 18  1  0
 18 19  1  0
 19 20  1  0
  5  1  1  0
 10 11  2  0
 21 22  2  0
 11  6  1  0
 22 23  1  0
  5  6  1  0
 23 24  2  0
  1  2  2  0
 24 25  1  0
  3 12  1  0
 25 26  2  0
 26 21  1  0
  1 21  1  0
  9 27  1  0
 12 13  1  0
 26 28  1  0
  6  7  2  0
 24 29  1  0
 12 14  2  0
  2  3  1  0
 30 31  3  0
  4 30  1  0
M  END