
  Mrv0541 05211314572D          

 25 26  0  0  0  0            999 V2000
    1.1673   -0.4374    0.0000 C   0  0  0  0  0  0  0  0  0  0  0  0
    1.5791   -1.1523    0.0000 C   0  0  0  0  0  0  0  0  0  0  0  0
    0.3423   -0.4366    0.0000 N   0  0  0  0  0  0  0  0  0  0  0  0
   -2.9339    2.2358    0.0000 N   0  0  0  0  0  0  0  0  0  0  0  0
   -0.0695    0.2783    0.0000 C   0  0  0  0  0  0  0  0  0  0  0  0
   -2.3733    1.7959    0.0000 C   0  0  0  0  0  0  0  0  0  0  0  0
   -2.7942    1.4227    0.0000 C   0  0  0  0  0  0  0  0  0  0  0  0
   -1.3063    0.9940    0.0000 C   0  0  0  0  0  0  0  0  0  0  0  0
   -1.4445    1.8114    0.0000 C   0  0  0  0  0  0  0  0  0  0  0  0
   -1.8225    1.4227    0.0000 C   0  0  0  0  0  0  0  0  0  0  0  0
   -0.8945    0.2791    0.0000 N   0  0  0  0  0  0  0  0  0  0  0  0
    2.4041   -1.1531    0.0000 C   0  0  0  0  0  0  0  0  0  0  0  0
    1.1659   -1.8663    0.0000 C   0  0  0  0  0  0  0  0  0  0  0  0
    1.5805    0.2767    0.0000 O   0  0  0  0  0  0  0  0  0  0  0  0
    0.3437    0.9924    0.0000 O   0  0  0  0  0  0  0  0  0  0  0  0
   -2.6938    1.0873    0.0000 C   0  0  0  0  0  0  0  0  0  0  0  0
   -3.3141    0.7104    0.0000 C   0  0  0  0  0  0  0  0  0  0  0  0
    2.8159   -1.8680    0.0000 C   0  0  0  0  0  0  0  0  0  0  0  0
    1.5777   -2.5812    0.0000 C   0  0  0  0  0  0  0  0  0  0  0  0
   -3.3565    2.9443    0.0000 C   0  0  0  0  0  0  0  0  0  0  0  0
    2.4027   -2.5820    0.0000 C   0  0  0  0  0  0  0  0  0  0  0  0
    1.1645   -3.2953    0.0000 Cl  0  0  0  0  0  0  0  0  0  0  0  0
    5.8816    0.0000    0.0000 Cl  0  0  0  0  0  0  0  0  0  0  0  0
    2.8173   -0.4390    0.0000 O   0  0  0  0  0  0  0  0  0  0  0  0
    3.6423   -0.4398    0.0000 C   0  0  0  0  0  0  0  0  0  0  0  0
  1  2  1  0  0  0  0
  1  3  1  0  0  0  0
  3  5  1  0  0  0  0
  4  6  1  0  0  0  0
  4  7  1  0  0  0  0
  6  9  1  0  0  0  0
  8  9  1  0  0  0  0
  7 10  1  0  0  0  0
  8 10  1  0  0  0  0
  5 11  1  0  0  0  0
  8 11  1  0  0  0  0
  2 12  2  0  0  0  0
  2 13  1  0  0  0  0
  1 14  2  0  0  0  0
  5 15  2  0  0  0  0
  6 16  1  0  0  0  0
  7 17  1  0  0  0  0
 16 17  1  0  0  0  0
 12 18  1  0  0  0  0
 13 19  2  0  0  0  0
  4 20  1  0  0  0  0
 18 21  2  0  0  0  0
 19 21  1  0  0  0  0
 19 22  1  0  0  0  0
 12 24  1  0  0  0  0
 24 25  1  0  0  0  0
M  END