
  SciTegic11201309402D

 30 32  0  0  0  0            999 V2000
   -1.0427   -1.2288    0.0000 C   0  0  1  0  0  0
   -0.6302   -1.9433    0.0000 O   0  0
   -1.8677   -1.2288    0.0000 C   0  0
   -2.2802   -0.5143    0.0000 C   0  0
   -1.8677    0.2001    0.0000 C   0  0
   -1.0427    0.2001    0.0000 C   0  0  2  0  0  0
   -0.6302    0.9146    0.0000 C   0  0  2  0  0  0
   -1.0427    1.6291    0.0000 O   0  0
    0.1948    0.9146    0.0000 C   0  0  2  0  0  0
    0.6073    1.6291    0.0000 O   0  0
    0.6073    0.2001    0.0000 C   0  0  1  0  0  0
    1.4323    0.2001    0.0000 O   0  0
    0.1948   -0.5143    0.0000 C   0  0  1  0  0  0
   -0.2177   -1.2288    0.0000 O   0  0
   -0.6302   -0.5143    0.0000 C   0  0  1  0  0  0
    0.6073   -1.2288    0.0000 C   0  0
    0.1948   -1.9433    0.0000 O   0  0
    1.4323   -1.2288    0.0000 C   0  0
    1.8448   -0.5143    0.0000 C   0  0  2  0  0  0
    2.5732   -0.9017    0.0000 C   0  0
    2.6020   -1.7262    0.0000 C   0  0
    2.5732   -0.1270    0.0000 C   0  0
    1.0198    0.9146    0.0000 C   0  0
   -2.5673    0.6373    0.0000 C   0  0
   -1.8965    1.0246    0.0000 C   0  0
   -0.7164   -1.3348    0.0000 C   0  0
    0.1948    2.3435    0.0000 C   0  0
   -0.6302    2.3435    0.0000 O   0  0
    0.6073    3.0580    0.0000 C   0  0
   -1.5427    1.0661    0.0000 H   0  0
  1  2  1  1
  1  3  1  0
  1 15  1  0
  3  4  1  0
  4  5  1  0
  6  5  1  0
 24  5  1  0
 25  5  1  0
  6  7  1  0
 15  6  1  0
  7  8  1  6
  7  9  1  0
  9 10  1  6
  9 11  1  0
 27 10  1  0
 11 12  1  0
 11 13  1  0
 11 23  1  6
 19 12  1  0
 13 14  1  1
 15 13  1  0
 16 13  1  0
 15 26  1  6
 16 17  2  0
 16 18  1  0
 18 19  1  0
 19 20  1  0
 19 22  1  6
 20 21  2  0
 27 28  2  0
 27 29  1  0
  6 30  1  1
M  END