
  SciTegic09291413392D

 32 33  0  0  0  0            999 V2000
    8.5915  -14.9998    0.0000 O   0  0
    7.9197  -15.4853    0.0000 C   0  0
    8.1749  -16.2748    0.0000 C   0  0
    9.0040  -16.2748    0.0000 C   0  0
    9.2608  -15.4865    0.0000 C   0  0
   10.0455  -15.2321    0.0000 O   0  0
    9.4887  -16.9424    0.0000 C   0  0
    7.4999  -14.7665    0.0000 C   0  0
    7.4950  -16.1921    0.0000 C   0  0
    6.6701  -16.1778    0.0000 O   0  0
    6.6749  -14.7687    0.0000 O   0  0
    6.2606  -14.0552    0.0000 C   0  0
    5.4356  -14.0575    0.0000 C   0  0
    6.6712  -13.3397    0.0000 O   0  0
    9.0633  -17.6495    0.0000 C   0  0
    8.2377  -17.6331    0.0000 C   0  0
    7.8124  -18.3391    0.0000 C   0  0
    8.2121  -19.0619    0.0000 C   0  0
    9.0413  -19.0742    0.0000 C   0  0
    9.4627  -18.3674    0.0000 C   0  0
    9.4434  -19.7945    0.0000 C   0  0
    9.0206  -20.5030    0.0000 O   0  0
   10.2682  -19.8065    0.0000 O   0  0
    5.0212  -13.3441    0.0000 C   0  0
    4.1962  -13.3462    0.0000 C   0  0
    5.4317  -12.6286    0.0000 C   0  0
    5.0174  -11.9151    0.0000 C   0  0
    5.4280  -11.1997    0.0000 C   0  0
    4.1924  -11.9173    0.0000 C   0  0
    3.7856  -14.0618    0.0000 C   0  0
    2.9606  -14.0639    0.0000 C   0  0
    4.2000  -14.7751    0.0000 C   0  0
  2  3  1  0
  1  2  1  0
  3  4  1  0
  4  5  1  0
  5  1  1  0
  5  6  2  0
  4  7  2  0
  2  8  1  0
  2  9  1  0
  9 10  1  0
  8 11  1  0
 11 12  1  0
 12 13  1  0
 12 14  2  0
  7 15  1  0
 15 16  2  0
 16 17  1  0
 17 18  2  0
 18 19  1  0
 19 20  2  0
 20 15  1  0
 19 21  1  0
 21 22  2  0
 21 23  1  0
 13 24  1  0
 24 25  1  0
 24 26  1  0
 26 27  1  0
 27 28  1  0
 27 29  1  0
 25 30  1  0
 30 31  1  0
 30 32  1  0
M  END