
  SciTegic03291108522D

 23 26  0  0  0  0            999 V2000
   -3.0834   -1.2477    0.0000 Cl  0  0
   -0.9596    1.9995    0.0000 S   0  0
    0.5395   -0.3180    0.0000 S   0  0
    1.2540    0.9195    0.0000 N   0  0
    0.5395    2.1570    0.0000 N   0  0
    2.0076   -0.3949    0.0000 N   0  0
    1.3402   -1.5510    0.0000 N   0  0
    2.5597   -1.0080    0.0000 N   0  0
    2.1472   -1.7225    0.0000 N   0  0
   -0.1750    0.9195    0.0000 C   0  0
   -0.9596    0.6646    0.0000 C   0  0
   -0.1750    1.7445    0.0000 C   0  0
    0.5395    0.5070    0.0000 C   0  0
   -1.2145   -0.1200    0.0000 C   0  0
   -1.4445    1.3320    0.0000 C   0  0
    1.2540   -0.7305    0.0000 C   0  0
    1.2540    1.7445    0.0000 C   0  0
   -2.0215   -0.2916    0.0000 C   0  0
   -0.6625   -0.7331    0.0000 C   0  0
   -2.2765   -1.0762    0.0000 C   0  0
   -0.9174   -1.5178    0.0000 C   0  0
   -1.7244   -1.6893    0.0000 C   0  0
    2.1792    0.4120    0.0000 C   0  0
  1 20  1  0
  2 12  1  0
  2 15  1  0
  3 13  1  0
  3 16  1  0
  4 13  1  0
  4 17  2  0
  5 12  2  0
  5 17  1  0
  6  8  1  0
  6 16  1  0
  6 23  1  0
  7  9  1  0
  7 16  2  0
  8  9  2  0
 10 11  1  0
 10 12  1  0
 10 13  2  0
 11 14  1  0
 11 15  2  0
 14 18  2  0
 14 19  1  0
 18 20  1  0
 19 21  2  0
 20 22  2  0
 21 22  1  0
M  END