
  SciTegic04071410272D

 30 32  0  0  0  0            999 V2000
   11.3848    0.7491    0.0000 C   0  0  1  0  0  0
   12.4707   -0.0617    0.0000 C   0  0  2  0  0  0
   11.9456    0.3711    0.0000 C   0  0
   10.9590    0.3711    0.0000 C   0  0  1  0  0  0
   10.8190    1.1964    0.0000 N   0  3
   12.3279    0.7673    0.0000 C   0  0
   10.4306   -0.3495    0.0000 C   0  0
   11.0631    0.0318    0.0000 C   0  0
   12.8853   -0.7757    0.0000 C   0  0
   13.7110   -0.7738    0.0000 C   0  0
   14.1256   -1.4881    0.0000 C   0  0
   13.9212    0.0292    0.0000 C   0  0
   14.1315    0.8323    0.0000 N   0  0
   14.5052   -0.5547    0.0000 C   0  0
   13.7131   -2.2008    0.0000 C   0  0
   14.1270   -2.9145    0.0000 C   0  0
   14.9536   -2.9130    0.0000 C   0  0
   15.3647   -2.1919    0.0000 C   0  0
   14.9485   -1.4812    0.0000 C   0  0
   15.0909   -1.1356    0.0000 C   0  0
   15.8844   -0.9169    0.0000 C   0  0
   16.0922   -0.1187    0.0000 C   0  0
   15.5004    0.4604    0.0000 C   0  0
   14.7091    0.2387    0.0000 C   0  0
   10.0176    1.4138    0.0000 C   0  0
   11.2271    1.9143    0.0000 C   0  0
   10.8094    2.6267    0.0000 C   0  0
   12.7535    1.7850    0.0000 Br  0  5
   10.1562    0.5611    0.0000 H   0  0
   11.6481    1.5310    0.0000 H   0  0
 12 13  3  0
  5  1  1  0
 10 14  1  0
  1  6  1  0
 11 15  2  0
  6  2  1  0
 15 16  1  0
  4  7  1  0
 16 17  2  0
  1  8  1  0
 17 18  1  0
  7  8  1  0
 18 19  2  0
 19 11  1  0
 14 20  2  0
  2  9  1  6
 20 21  1  0
 21 22  2  0
  9 10  1  0
 22 23  1  0
  2  3  1  0
 23 24  2  0
 24 14  1  0
 10 11  1  0
  5 25  1  0
  3  4  1  0
  5 26  1  0
 10 12  1  0
 26 27  1  0
  4  5  1  0
  4 29  1  1
  1 30  1  6
M  CHG  2   5   1  28  -1
M  END