
          11280715132D 1   1.00000     0.00000     0

 20 22  0     0  0            999 V2000
    1.3792   -0.7292    0.0000 C   0  0  0  0  0  0           0  0  0
    0.8667   -1.0292    0.0000 C   0  0  0  0  0  0           0  0  0
    0.8750   -1.6292    0.0000 C   0  0  0  0  0  0           0  0  0
    1.9000   -1.0167    0.0000 N   0  0  0  0  0  0           0  0  0
    1.3750   -0.1292    0.0000 N   0  0  0  0  0  0           0  0  0
    1.3917   -1.9250    0.0000 N   0  0  0  0  0  0           0  0  0
    0.3417   -0.7417    0.0000 C   0  0  0  0  0  0           0  0  0
    0.3625   -1.9417    0.0000 C   0  0  0  0  0  0           0  0  0
    1.9125   -1.6167    0.0000 C   0  0  0  0  0  0           0  0  0
    1.8917    0.1750    0.0000 C   0  0  0  0  0  0           0  0  0
    2.4125   -0.1167    0.0000 C   0  0  0  0  0  0           0  0  0
   -0.1625   -1.6542    0.0000 C   0  0  0  0  0  0           0  0  0
   -0.1750   -1.0542    0.0000 C   0  0  0  0  0  0           0  0  0
    2.9292    0.1833    0.0000 C   0  0  0  0  0  0           0  0  0
   -0.6750   -1.9667    0.0000 N   0  0  0  0  0  0           0  0  0
    3.4417   -0.1167    0.0000 Br  0  0  0  0  0  0           0  0  0
    2.4000    1.0833    0.0000 C   0  0  0  0  0  0           0  0  0
    1.8792    0.7750    0.0000 C   0  0  0  0  0  0           0  0  0
    2.9250    0.7833    0.0000 C   0  0  0  0  0  0           0  0  0
   -1.2000   -1.6792    0.0000 C   0  0  0  0  0  0           0  0  0
  2  1  2  0     0  0
  3  2  1  0     0  0
  4  1  1  0     0  0
  5  1  1  0     0  0
  6  9  1  0     0  0
  7  2  1  0     0  0
  8  3  1  0     0  0
  9  4  2  0     0  0
 10  5  1  0     0  0
 11 10  2  0     0  0
 12 13  1  0     0  0
 13  7  2  0     0  0
 14 11  1  0     0  0
 15 12  1  0     0  0
 16 14  1  0     0  0
 17 18  2  0     0  0
 18 10  1  0     0  0
 19 17  1  0     0  0
 20 15  1  0     0  0
  3  6  2  0     0  0
  8 12  2  0     0  0
 14 19  2  0     0  0
M  END