
          11280715352D 1   1.00000     0.00000     0

 32 35  0     0  0            999 V2000
    0.1792   -1.2875    0.0000 S   0  0  3  0  0  0           0  0  0
    0.1750   -0.4625    0.0000 N   0  0  0  0  0  0           0  0  0
   -1.2583    1.1875    0.0000 N   0  0  0  0  0  0           0  0  0
   -0.5458    0.7708    0.0000 N   0  0  3  0  0  0           0  0  0
   -0.5458   -0.0542    0.0000 C   0  0  0  0  0  0           0  0  0
   -1.2583    2.0208    0.0000 C   0  0  0  0  0  0           0  0  0
    0.1625    2.0208    0.0000 C   0  0  3  0  0  0           0  0  0
    0.1667    1.1958    0.0000 C   0  0  0  0  0  0           0  0  0
    0.1750   -2.1125    0.0000 C   0  0  0  0  0  0           0  0  0
    0.9750   -1.5000    0.0000 O   0  0  0  0  0  0           0  0  0
   -0.5375   -1.6917    0.0000 O   0  0  0  0  0  0           0  0  0
   -1.8458    2.5958    0.0000 C   0  0  0  0  0  0           0  0  0
    0.8792   -2.5167    0.0000 C   0  0  0  0  0  0           0  0  0
    0.7417    2.6000    0.0000 C   0  0  0  0  0  0           0  0  0
   -1.2583   -0.4667    0.0000 N   0  0  0  0  0  0           0  0  0
   -1.6250    3.3958    0.0000 C   0  0  0  0  0  0           0  0  0
   -2.6333    2.3833    0.0000 C   0  0  0  0  0  0           0  0  0
    0.8792   -3.3417    0.0000 C   0  0  0  0  0  0           0  0  0
   -3.0083    3.7708    0.0000 C   0  0  0  0  0  0           0  0  0
   -3.2208    2.9625    0.0000 C   0  0  0  0  0  0           0  0  0
   -2.2083    3.9833    0.0000 C   0  0  0  0  0  0           0  0  0
    1.5917   -3.7542    0.0000 Cl  0  0  0  0  0  0           0  0  0
   -3.5958    4.3417    0.0000 Cl  0  0  0  0  0  0           0  0  0
   -0.5458   -2.5167    0.0000 C   0  0  0  0  0  0           0  0  0
   -0.5500   -3.3375    0.0000 C   0  0  0  0  0  0           0  0  0
    0.5292    3.3958    0.0000 C   0  0  0  0  0  0           0  0  0
    1.5417    2.3833    0.0000 C   0  0  0  0  0  0           0  0  0
    0.1625   -3.7542    0.0000 C   0  0  0  0  0  0           0  0  0
   -1.2500   -1.2917    0.0000 C   0  0  0  0  0  0           0  0  0
    1.1042    3.9833    0.0000 C   0  0  0  0  0  0           0  0  0
    2.1250    2.9708    0.0000 C   0  0  0  0  0  0           0  0  0
    1.9125    3.7708    0.0000 C   0  0  0  0  0  0           0  0  0
  2  1  1  0     0  0
  3  4  1  0     0  0
  4  5  1  0     0  0
  5  2  1  0     0  0
  6  3  2  0     0  0
  7  8  1  0     0  0
  8  4  1  0     0  0
  9  1  1  0     0  0
 10  1  2  0     0  0
 11  1  2  0     0  0
 12  6  1  0     0  0
 13  9  1  0     0  0
 14  7  1  0     0  0
 15  5  2  0     0  0
 16 12  2  0     0  0
 17 12  1  0     0  0
 18 13  2  0     0  0
 19 20  1  0     0  0
 20 17  2  0     0  0
 21 16  1  0     0  0
 22 18  1  0     0  0
 23 19  1  0     0  0
 24  9  2  0     0  0
 25 24  1  0     0  0
 26 14  1  0     0  0
 27 14  2  0     0  0
 28 25  2  0     0  0
 29 15  1  0     0  0
 30 26  2  0     0  0
 31 27  1  0     0  0
 32 31  2  0     0  0
 18 28  1  0     0  0
  6  7  1  0     0  0
 19 21  2  0     0  0
 32 30  1  0     0  0
M  END