
  SciTegic01161211222D

 20 22  0  0  0  0            999 V2000
   -0.5197    1.4860    0.0000 C   0  0
   -0.5274    0.6575    0.0000 C   0  0
    0.1838    0.2399    0.0000 C   0  0
    0.1931    1.8943    0.0000 C   0  0
    0.9051    1.4782    0.0000 C   0  0
    0.9043    0.6451    0.0000 C   0  0
    1.6180    0.2257    0.0000 C   0  0
    2.3437    0.6406    0.0000 C   0  0
    2.3487    1.4736    0.0000 C   0  0
    1.6281    1.8959    0.0000 O   0  0
    1.6154   -0.5992    0.0000 O   0  0
    3.0634    1.8806    0.0000 C   0  0
    3.7749    1.4638    0.0000 C   0  0
    4.4931    1.8698    0.0000 C   0  0
    4.4959    2.6960    0.0000 C   0  0
    3.7798    3.1137    0.0000 C   0  0
    3.0660    2.7041    0.0000 C   0  0
   -1.2306    1.9028    0.0000 O   0  0
   -1.2249    2.7277    0.0000 C   0  0
    0.1756   -0.5850    0.0000 O   0  0
  1  2  2  0
  2  3  1  0
  3  6  2  0
  5  4  2  0
  4  1  1  0
  5  6  1  0
  5 10  1  0
  6  7  1  0
  7  8  1  0
  8  9  2  0
  9 10  1  0
  7 11  2  0
  9 12  1  0
 12 13  2  0
 13 14  1  0
 14 15  2  0
 15 16  1  0
 16 17  2  0
 17 12  1  0
  1 18  1  0
 18 19  1  0
  3 20  1  0
M  END