
  SciTegic01161211232D

 23 25  0  0  0  0            999 V2000
   -3.9091    1.5019    0.0000 C   0  0
   -2.6111    0.7486    0.0000 C   0  0
   -2.6111   -0.7486    0.0000 C   0  0
   -1.2964   -1.4973    0.0000 O   0  0
    0.0000   -0.7486    0.0000 C   0  0
    1.2964   -1.4973    0.0000 C   0  0
    2.5929   -0.7486    0.0000 C   0  0
    2.5929    0.7486    0.0000 C   0  0
    1.2964    1.4973    0.0000 C   0  0
    0.0000    0.7486    0.0000 C   0  0
   -1.2964    1.4973    0.0000 O   0  0
   -3.9067    3.0027    0.0000 C   0  0
   -5.1171    3.8670    0.0000 N   0  0
   -4.6484    5.2919    0.0000 C   0  0
   -3.1484    5.2864    0.0000 C   0  0
   -2.6901    3.8581    0.0000 N   0  0
   -5.5261    6.5092    0.0000 C   0  0
   -7.0206    6.4698    0.0000 C   0  0
   -7.8038    7.7491    0.0000 C   0  0
   -7.0875    9.0670    0.0000 C   0  0
   -5.5880    9.1057    0.0000 C   0  0
   -4.8048    7.8264    0.0000 C   0  0
    5.0929    3.8042    0.0000 Cl  0  0
  1  2  1  0
  2  3  1  0
  3  4  1  0
  4  5  1  0
  5  6  2  0
  6  7  1  0
  7  8  2  0
  8  9  1  0
  9 10  2  0
 10  5  1  0
 10 11  1  0
 11  2  1  0
  1 12  1  0
 12 13  2  0
 13 14  1  0
 14 15  2  0
 15 16  1  0
 16 12  1  0
 14 17  1  0
 17 18  2  0
 18 19  1  0
 19 20  2  0
 20 21  1  0
 21 22  2  0
 22 17  1  0
M  END