
  SciTegic11081110012D

 24 26  0  0  0  0            999 V2000
   -0.2804   -5.7835    0.0000 C   0  0
   -0.9890   -6.2059    0.0000 N   0  0
   -0.9775   -7.0309    0.0000 C   0  0
   -0.2574   -7.4333    0.0000 C   0  0
    0.4513   -7.0109    0.0000 N   0  0
    0.4398   -6.1860    0.0000 C   0  0
    1.1484   -5.7636    0.0000 C   0  0
    1.8686   -6.1660    0.0000 N   0  0
    1.1369   -4.9386    0.0000 O   0  0
    1.8801   -6.9910    0.0000 C   0  0
    2.6002   -7.3935    0.0000 C   0  0
    3.3089   -6.9711    0.0000 N   0  0
    3.2974   -6.1462    0.0000 C   0  0
    2.5772   -5.7436    0.0000 C   0  0
    4.0290   -7.3736    0.0000 C   0  0
    4.0405   -8.1985    0.0000 C   0  0
    4.7376   -6.9512    0.0000 C   0  0
   -1.6861   -7.4533    0.0000 C   0  0
   -2.4063   -7.0507    0.0000 N   0  0
   -2.4178   -6.2258    0.0000 C   0  0
   -3.1380   -5.8233    0.0000 C   0  0
   -3.8467   -6.2457    0.0000 C   0  0
   -3.8351   -7.0707    0.0000 C   0  0
   -3.1150   -7.4731    0.0000 C   0  0
  1  2  2  0
  2  3  1  0
  3  4  2  0
  4  5  1  0
  5  6  2  0
  6  1  1  0
  6  7  1  0
  7  8  1  0
  7  9  2  0
  8 10  1  0
  8 14  1  0
 10 11  1  0
 11 12  1  0
 12 13  1  0
 13 14  1  0
 12 15  1  0
 15 16  1  0
 15 17  1  0
  3 18  1  0
 18 19  1  0
 19 20  1  0
 19 24  1  0
 20 21  1  0
 21 22  1  0
 22 23  1  0
 23 24  1  0
M  END