
          11280715252D 1   1.00000     0.00000     0

 46 47  0     1  0            999 V2000
    1.4042   -1.3417    0.0000 C   0  0  1  0  0  0           0  0  0
    3.5542   -0.9292    0.0000 C   0  0  1  0  0  0           0  0  0
    0.6917   -0.9292    0.0000 C   0  0  0  0  0  0           0  0  0
    4.2667   -1.3417    0.0000 C   0  0  0  0  0  0           0  0  0
    2.1250   -0.9292    0.0000 C   0  0  1  0  0  0           0  0  0
    2.8375   -1.3417    0.0000 C   0  0  1  0  0  0           0  0  0
   -0.0208   -1.3417    0.0000 N   0  0  0  0  0  0           0  0  0
    4.9792   -0.9292    0.0000 N   0  0  0  0  0  0           0  0  0
   -0.7333   -0.9292    0.0000 C   0  0  2  0  0  0           0  0  0
    5.6917   -1.3417    0.0000 C   0  0  2  0  0  0           0  0  0
   -1.4500   -1.3417    0.0000 C   0  0  0  0  0  0           0  0  0
    6.4125   -0.9292    0.0000 C   0  0  0  0  0  0           0  0  0
    3.5542   -0.1042    0.0000 O   0  0  0  0  0  0           0  0  0
    1.4042   -2.1667    0.0000 O   0  0  0  0  0  0           0  0  0
    4.2667   -2.1667    0.0000 O   0  0  0  0  0  0           0  0  0
    0.6917   -0.1042    0.0000 O   0  0  0  0  0  0           0  0  0
   -1.4500   -2.1667    0.0000 O   0  0  0  0  0  0           0  0  0
    6.4125   -0.1042    0.0000 O   0  0  0  0  0  0           0  0  0
    7.1250   -1.3417    0.0000 N   0  0  0  0  0  0           0  0  0
   -2.1625   -0.9292    0.0000 N   0  0  0  0  0  0           0  0  0
    2.8375   -2.1667    0.0000 O   0  0  0  0  0  0           0  0  0
    2.1250   -0.1042    0.0000 O   0  0  0  0  0  0           0  0  0
    0.6917   -2.5792    0.0000 C   0  0  0  0  0  0           0  0  0
    4.2667    0.3083    0.0000 C   0  0  0  0  0  0           0  0  0
    5.6917   -2.1667    0.0000 C   0  0  3  0  0  0           0  0  0
   -0.7333   -0.1042    0.0000 C   0  0  3  0  0  0           0  0  0
    0.6917   -5.0500    0.0000 C   0  0  0  0  0  0           0  0  0
    4.2667    2.7833    0.0000 C   0  0  0  0  0  0           0  0  0
    4.2667    1.1333    0.0000 C   0  0  0  0  0  0           0  0  0
    0.6917   -3.4042    0.0000 C   0  0  0  0  0  0           0  0  0
    0.6917   -5.8750    0.0000 Br  0  0  0  0  0  0           0  0  0
    4.2667    3.6083    0.0000 Br  0  0  0  0  0  0           0  0  0
   -0.0208   -4.6375    0.0000 C   0  0  0  0  0  0           0  0  0
    3.5542    2.3708    0.0000 C   0  0  0  0  0  0           0  0  0
    1.4042   -4.6292    0.0000 C   0  0  0  0  0  0           0  0  0
    4.9792    2.3708    0.0000 C   0  0  0  0  0  0           0  0  0
    4.9792    1.5458    0.0000 C   0  0  0  0  0  0           0  0  0
    3.5542    1.5458    0.0000 C   0  0  0  0  0  0           0  0  0
   -0.0208   -3.8125    0.0000 C   0  0  0  0  0  0           0  0  0
    1.4042   -3.8042    0.0000 C   0  0  0  0  0  0           0  0  0
   -2.8750   -1.3417    0.0000 C   0  0  0  0  0  0           0  0  0
    7.8417   -0.9292    0.0000 C   0  0  0  0  0  0           0  0  0
   -1.4500    0.3083    0.0000 C   0  0  0  0  0  0           0  0  0
   -0.0208    0.3083    0.0000 C   0  0  0  0  0  0           0  0  0
    4.9792   -2.5792    0.0000 C   0  0  0  0  0  0           0  0  0
    6.4125   -2.5792    0.0000 C   0  0  0  0  0  0           0  0  0
  2  6  1  0     0  0
  3  1  1  0     0  0
  4  2  1  0     0  0
  5  1  1  0     0  0
  6  5  1  0     0  0
  7  3  1  0     0  0
  8  4  1  0     0  0
  9  7  1  0     0  0
 10  8  1  0     0  0
 11  9  1  0     0  0
 12 10  1  0     0  0
  2 13  1  1     0  0
  1 14  1  1     0  0
 15  4  2  0     0  0
 16  3  2  0     0  0
 17 11  2  0     0  0
 18 12  2  0     0  0
 19 12  1  0     0  0
 20 11  1  0     0  0
  6 21  1  6     0  0
  5 22  1  6     0  0
 23 14  1  0     0  0
 24 13  1  0     0  0
 10 25  1  6     0  0
  9 26  1  6     0  0
 27 35  1  0     0  0
 28 34  1  0     0  0
 29 24  1  0     0  0
 30 23  1  0     0  0
 31 27  1  0     0  0
 32 28  1  0     0  0
 33 39  1  0     0  0
 34 38  2  0     0  0
 35 40  2  0     0  0
 36 37  1  0     0  0
 37 29  2  0     0  0
 38 29  1  0     0  0
 39 30  2  0     0  0
 40 30  1  0     0  0
 41 20  1  0     0  0
 42 19  1  0     0  0
 43 26  1  0     0  0
 44 26  1  0     0  0
 45 25  1  0     0  0
 46 25  1  0     0  0
 33 27  2  0     0  0
 36 28  2  0     0  0
M  END