
  SciTegic03291108532D

 17 18  0  0  0  0            999 V2000
   -0.4413    3.5548    0.0000 Cl  0  0
    0.2732   -3.4577    0.0000 F   0  0
    0.9877    0.2548    0.0000 O   0  0
   -0.4413    0.2548    0.0000 N   0  0
    0.2732    2.3173    0.0000 N   0  0
    0.2732   -0.9827    0.0000 C   0  0
    0.2732   -0.1577    0.0000 C   0  0
   -0.4413    1.0798    0.0000 C   0  0
    0.9877   -1.3952    0.0000 C   0  0
   -0.4413   -1.3952    0.0000 C   0  0
    0.2732    1.4923    0.0000 C   0  0
   -1.1558    1.4923    0.0000 C   0  0
   -0.4413    2.7298    0.0000 C   0  0
    0.2732   -2.6327    0.0000 C   0  0
   -1.1558    2.3173    0.0000 C   0  0
    0.9877   -2.2202    0.0000 C   0  0
   -0.4413   -2.2202    0.0000 C   0  0
  1 13  1  0
  2 14  1  0
  3  7  2  0
  4  7  1  0
  4  8  1  0
  5 11  1  0
  5 13  2  0
  6  7  1  0
  6  9  2  0
  6 10  1  0
  8 11  2  0
  8 12  1  0
  9 16  1  0
 10 17  2  0
 12 15  2  0
 13 15  1  0
 14 16  2  0
 14 17  1  0
M  END