
          11280715162D 1   1.00000     0.00000     0

 20 21  0     0  0            999 V2000
   -1.5875   -1.2750    0.0000 N   0  0  3  0  0  0           0  0  0
   -1.1458   -0.5792    0.0000 C   0  0  3  0  0  0           0  0  0
   -0.3208   -0.6167    0.0000 C   0  0  0  0  0  0           0  0  0
    0.5042   -0.6625    0.0000 C   0  0  0  0  0  0           0  0  0
   -2.4125   -1.3167    0.0000 C   0  0  0  0  0  0           0  0  0
    1.7792   -0.0125    0.0000 N   0  0  3  0  0  0           0  0  0
   -2.9375   -0.6792    0.0000 O   0  0  0  0  0  0           0  0  0
   -1.5208    0.1583    0.0000 C   0  0  0  0  0  0           0  0  0
    1.3292   -0.7000    0.0000 C   0  0  0  0  0  0           0  0  0
   -1.2958   -2.0417    0.0000 C   0  0  0  0  0  0           0  0  0
   -2.6208   -2.1125    0.0000 C   0  0  0  0  0  0           0  0  0
    1.4792    0.7583    0.0000 C   0  0  0  0  0  0           0  0  0
    2.6000    0.0333    0.0000 C   0  0  0  0  0  0           0  0  0
   -1.0708    0.8458    0.0000 C   0  0  0  0  0  0           0  0  0
   -2.3375    0.1875    0.0000 C   0  0  0  0  0  0           0  0  0
    2.8125    0.8333    0.0000 C   0  0  0  0  0  0           0  0  0
    2.1167    1.2750    0.0000 C   0  0  0  0  0  0           0  0  0
   -2.7125    0.9208    0.0000 C   0  0  0  0  0  0           0  0  0
   -1.4458    1.5750    0.0000 C   0  0  0  0  0  0           0  0  0
   -2.2708    1.6208    0.0000 C   0  0  0  0  0  0           0  0  0
  2  1  1  0     0  0
  3  2  1  0     0  0
  4  3  3  0     0  0
  5  1  1  0     0  0
  6  9  1  0     0  0
  7  5  2  0     0  0
  8  2  1  0     0  0
  9  4  1  0     0  0
 10  1  1  0     0  0
 11  5  1  0     0  0
 12  6  1  0     0  0
 13  6  1  0     0  0
 14  8  2  0     0  0
 15  8  1  0     0  0
 16 13  1  0     0  0
 17 12  1  0     0  0
 18 15  2  0     0  0
 19 14  1  0     0  0
 20 18  1  0     0  0
 19 20  2  0     0  0
 16 17  1  0     0  0
M  END