
          11280715112D 1   1.00000     0.00000     0

 27 30  0     0  0            999 V2000
   -1.1083   -1.7917    0.0000 C   0  0  0  0  0  0           0  0  0
   -1.8250   -2.2125    0.0000 C   0  0  0  0  0  0           0  0  0
   -0.3958   -2.2125    0.0000 C   0  0  3  0  0  0           0  0  0
   -1.8333   -3.0375    0.0000 C   0  0  0  0  0  0           0  0  0
    3.9000   -0.5875    0.0000 C   0  0  0  0  0  0           0  0  0
   -0.3958   -3.0417    0.0000 C   0  0  0  0  0  0           0  0  0
    1.7542   -1.8042    0.0000 N   0  0  3  0  0  0           0  0  0
    4.6125   -1.0042    0.0000 C   0  0  0  0  0  0           0  0  0
   -1.1083   -0.9667    0.0000 O   0  0  0  0  0  0           0  0  0
    3.1792   -0.9917    0.0000 C   0  0  3  0  0  0           0  0  0
    3.9042    0.2375    0.0000 O   0  0  0  0  0  0           0  0  0
    0.3250   -1.8042    0.0000 C   0  0  0  0  0  0           0  0  0
    4.6000   -1.8292    0.0000 C   0  0  0  0  0  0           0  0  0
    5.3250   -0.5917    0.0000 C   0  0  0  0  0  0           0  0  0
    2.4667   -0.5750    0.0000 C   0  0  0  0  0  0           0  0  0
    3.1750   -1.8167    0.0000 C   0  0  0  0  0  0           0  0  0
    1.0375   -2.2167    0.0000 C   0  0  0  0  0  0           0  0  0
    1.7500   -0.9792    0.0000 C   0  0  0  0  0  0           0  0  0
    2.4625   -2.2250    0.0000 C   0  0  0  0  0  0           0  0  0
    6.0292   -1.8375    0.0000 C   0  0  0  0  0  0           0  0  0
    6.0292   -1.0042    0.0000 C   0  0  0  0  0  0           0  0  0
    5.3125   -2.2417    0.0000 C   0  0  0  0  0  0           0  0  0
    6.7417   -2.2542    0.0000 F   0  0  0  0  0  0           0  0  0
   -2.5458   -1.8000    0.0000 C   0  0  0  0  0  0           0  0  0
   -2.5458   -3.4542    0.0000 C   0  0  0  0  0  0           0  0  0
   -3.2583   -2.2125    0.0000 C   0  0  0  0  0  0           0  0  0
   -3.2583   -3.0417    0.0000 C   0  0  0  0  0  0           0  0  0
  2  1  1  0     0  0
  3  1  1  0     0  0
  4  2  1  0     0  0
  5 10  1  0     0  0
  6  3  1  0     0  0
  7 17  1  0     0  0
  8  5  1  0     0  0
  9  1  2  0     0  0
 10 16  1  0     0  0
 11  5  2  0     0  0
 12  3  1  0     0  0
 13  8  2  0     0  0
 14  8  1  0     0  0
 15 18  1  0     0  0
 16 19  1  0     0  0
 17 12  1  0     0  0
 18  7  1  0     0  0
 19  7  1  0     0  0
 20 21  1  0     0  0
 21 14  2  0     0  0
 22 13  1  0     0  0
 23 20  1  0     0  0
 24  2  2  0     0  0
 25  4  2  0     0  0
 26 24  1  0     0  0
 27 26  2  0     0  0
  4  6  1  0     0  0
 25 27  1  0     0  0
 15 10  1  0     0  0
 22 20  2  0     0  0
M  END