
  SciTegic12171313022D

 36 39  0  0  0  0            999 V2000
   39.3691  -13.5088    0.0000 C   0  0
   39.3679  -14.3362    0.0000 C   0  0
   40.0827  -14.7490    0.0000 C   0  0
   40.7992  -14.3357    0.0000 C   0  0
   40.7963  -13.5052    0.0000 C   0  0
   40.0809  -13.0960    0.0000 C   0  0
   38.6531  -14.7481    0.0000 N   0  0
   38.6525  -15.5731    0.0000 C   0  0
   37.9377  -15.9850    0.0000 N   0  0
   39.3666  -15.9862    0.0000 O   0  0
   37.9370  -16.8100    0.0000 C   0  0
   37.2736  -17.2929    0.0000 N   0  0
   37.5279  -18.0777    0.0000 N   0  0
   38.3529  -18.0783    0.0000 C   0  0
   38.6084  -17.2939    0.0000 C   0  0
   38.8374  -18.7461    0.0000 C   0  0
   38.5013  -19.4996    0.0000 C   0  0
   39.6579  -18.6605    0.0000 C   0  0
   39.2455  -19.4547    0.0000 C   0  0
   36.4777  -17.0756    0.0000 C   0  0
   36.2729  -16.2795    0.0000 C   0  0
   35.4778  -16.0623    0.0000 C   0  0
   34.8909  -16.6434    0.0000 C   0  0
   35.1045  -17.4447    0.0000 C   0  0
   35.8992  -17.6581    0.0000 C   0  0
   34.0947  -16.4273    0.0000 C   0  0
   41.5061  -13.0913    0.0000 C   0  0
   42.2225  -13.5028    0.0000 N   0  0
   42.9349  -13.0883    0.0000 C   0  0
   42.9322  -12.2624    0.0000 C   0  0
   42.2112  -11.8528    0.0000 C   0  0
   41.5017  -12.2697    0.0000 N   0  0
   43.6507  -13.4985    0.0000 O   0  0
   42.2052  -11.0278    0.0000 O   0  0
   42.9166  -10.6101    0.0000 C   0  0
   44.3638  -13.0836    0.0000 C   0  0
  1  2  2  0
  2  3  1  0
  3  4  2  0
  4  5  1  0
  5  6  2  0
  6  1  1  0
  2  7  1  0
  7  8  1  0
  8  9  1  0
  8 10  2  0
  9 11  1  0
 11 12  1  0
 12 13  1  0
 13 14  2  0
 14 15  1  0
 15 11  2  0
 14 16  1  0
 16 17  1  0
 16 18  1  0
 16 19  1  0
 12 20  1  0
 20 21  2  0
 21 22  1  0
 22 23  2  0
 23 24  1  0
 24 25  2  0
 25 20  1  0
 23 26  1  0
 27 28  2  0
 28 29  1  0
 29 30  2  0
 30 31  1  0
 31 32  2  0
 32 27  1  0
  5 27  1  0
 29 33  1  0
 31 34  1  0
 34 35  1  0
 33 36  1  0
M  END