
  SciTegic02271515152D

 97 98  0  0  0  0            999 V2000
    2.7713   -0.4717    0.0000 O   0  0
    2.8677   -2.8787    0.0000 C   0  0
    2.1554   -0.8269    0.0000 O   0  0
    2.1554   -3.2959    0.0000 C   0  0
    0.7251   -3.2959    0.0000 C   0  0
    1.4412   -2.8787    0.0000 C   0  0
    0.7251   -0.8269    0.0000 C   0  0
    0.0172   -2.8787    0.0000 O   0  0
   -2.1293   -0.8269    0.0000 C   0  0
   -1.4216    0.4179    0.0000 C   0  0
   -1.4216   -0.4173    0.0000 C   0  0
   -0.7081   -0.8269    0.0000 C   0  0
   -2.1293   -1.6453    0.0000 C   0  0
   -0.7070   -4.4762    0.0000 O   0  0
   -2.0924   -3.6075    0.0000 C   0  0
   -3.5075   -3.5718    0.0000 C   0  0
   -2.8164   -3.9999    0.0000 C   0  0
   -2.8303   -4.8220    0.0000 C   0  0
   -2.8415   -6.4881    0.0000 C   0  0
   -1.4216   -7.3069    0.0000 O   0  0
   -0.7081   -5.2508    0.0000 C   0  0
    0.7251   -5.2508    0.0000 O   0  0
    1.4412   -7.3069    0.0000 C   0  0
    2.8677   -7.3069    0.0000 O   0  0
    2.1554   -5.2508    0.0000 C   0  0
    2.8677   -4.0145    0.0000 C   0  0
    2.8677   -4.8412    0.0000 C   0  0
    3.5842   -5.2508    0.0000 C   0  0
    4.2932   -7.3069    0.0000 C   0  0
    5.0057   -5.2508    0.0000 O   0  0
    6.4344   -7.7287    0.0000 C   0  0
    5.0057   -7.7287    0.0000 C   0  0
    5.7225   -7.3069    0.0000 C   0  0
    7.1518   -7.3069    0.0000 O   0  0
    8.6912   -4.5873    0.0000 C   0  0
    8.5772   -2.8787    0.0000 O   0  0
    7.8922   -2.4420    0.0000 C   0  0
    7.8602   -1.6453    0.0000 C   0  0
    6.4344   -0.8269    0.0000 O   0  0
    4.2932   -2.8787    0.0000 O   0  0
    4.2932   -2.0594    0.0000 C   0  0
    6.4344   -3.2959    0.0000 C   0  0
    5.7225   -2.8787    0.0000 C   0  0
    5.7225   -2.0594    0.0000 C   0  0  1  0  0  0
    6.4344   -1.6453    0.0000 C   0  0
    7.1518   -2.0594    0.0000 N   0  0
    7.1518   -2.8787    0.0000 C   0  0  1  0  0  0
    7.8602   -3.2959    0.0000 C   0  0
    7.8602   -4.5873    0.0000 N   0  0
    8.5762   -7.3445    0.0000 C   0  0
    8.5772   -6.4881    0.0000 C   0  0  2  0  0  0
    7.8602   -6.0785    0.0000 C   0  0  1  0  0  0
    7.1518   -6.4881    0.0000 C   0  0
    6.4344   -6.0785    0.0000 N   0  0
    5.7225   -6.4881    0.0000 C   0  0  2  0  0  0
    5.0057   -6.0785    0.0000 C   0  0
    4.2932   -6.4881    0.0000 N   0  0
    3.5842   -6.0785    0.0000 C   0  0  2  0  0  0
    2.8677   -6.4881    0.0000 C   0  0
    2.1554   -6.0785    0.0000 N   0  0
    1.4412   -6.4881    0.0000 C   0  0  2  0  0  0
    0.7251   -6.0785    0.0000 C   0  0
    0.0172   -6.4881    0.0000 N   0  0
   -0.7081   -6.0785    0.0000 C   0  0  1  0  0  0
   -1.4216   -6.4881    0.0000 C   0  0
   -2.1293   -6.0785    0.0000 N   0  0
   -2.1293   -5.2508    0.0000 C   0  0  2  0  0  0
   -1.4216   -4.8901    0.0000 C   0  0
   -1.4216   -2.0594    0.0000 N   0  0
   -0.7081   -1.6453    0.0000 C   0  0  2  0  0  0
    0.0172   -2.0594    0.0000 C   0  0
    0.7251   -1.6453    0.0000 N   0  0
    1.4412   -2.0594    0.0000 C   0  0  2  0  0  0
    2.1554   -1.6453    0.0000 C   0  0
    2.8677   -2.0594    0.0000 N   0  0
    3.5842   -1.6453    0.0000 C   0  0  1  0  0  0
    5.0057   -0.8269    0.0000 C   0  0
    2.8677    2.0694    0.0000 C   0  0
    3.5842    1.6556    0.0000 C   0  0
    3.5842    0.8400    0.0000 C   0  0
    4.2932    0.4178    0.0000 C   0  0
    4.2932   -0.4173    0.0000 C   0  0  2  0  0  0
    3.5842   -0.8269    0.0000 C   0  0  1  0  0  0
    5.0057   -1.6458    0.0000 N   0  0
    9.2890   -6.0867    0.0000 C   0  0
   10.7730   -6.0798    0.0000 C   0  0
   10.0281   -6.5111    0.0000 N   0  0
   10.0292   -7.3672    0.0000 C   0  0
   10.7735   -7.7984    0.0000 C   0  0
   11.5185   -7.3670    0.0000 N   0  0
   11.5191   -6.5045    0.0000 C   0  0
   12.2616   -7.7959    0.0000 C   0  0
   12.2618   -8.6539    0.0000 C   0  0
   13.0050   -9.0827    0.0000 O   0  0
   13.0052   -9.9407    0.0000 C   0  0
    2.7181   -1.1455    0.0000 H   0  0
    7.8628   -7.0785    0.0000 H   0  0
 83 82  1  0
 76 83  1  0
 83  1  1  6
 82 81  1  0
 82 77  1  1
 81 80  1  0
 80 79  2  0
 79 78  1  0
 76 75  1  0
 76 41  1  0
 74 75  1  0
 75  2  1  0
 73 74  1  0
 74  3  2  0
 72 73  1  0
 73  6  1  6
 71 72  1  0
 72  7  1  0
 70 71  1  0
 71  8  2  0
 69 70  1  0
 70 12  1  1
 69 68  1  0
 69 13  1  0
 67 68  1  0
 68 14  2  0
 66 67  1  0
 67 18  1  1
 65 66  1  0
 66 19  1  0
 64 65  1  0
 65 20  2  0
 63 64  1  0
 64 21  1  1
 62 63  1  0
 61 62  1  0
 62 22  2  0
 60 61  1  0
 61 23  1  1
 59 60  1  0
 58 59  1  0
 59 24  2  0
 57 58  1  0
 58 28  1  6
 56 57  1  0
 57 29  1  0
 55 56  1  0
 56 30  2  0
 54 55  1  0
 55 33  1  1
 53 54  1  0
 53 52  1  0
 53 34  2  0
 52 51  1  0
 52 49  1  0
 51 85  1  0
 51 50  1  6
 48 49  1  0
 49 35  1  0
 47 48  1  0
 48 36  2  0
 46 47  1  0
 47 37  1  1
 45 46  1  0
 46 38  1  0
 44 45  1  0
 45 39  2  0
 44 43  1  6
 84 44  1  0
 43 42  1  0
 41 40  2  0
 41 84  1  0
 33 32  1  0
 33 31  1  0
 28 27  1  0
 27 26  1  0
 27 25  1  0
 18 17  1  0
 17 16  1  0
 17 15  1  0
 12 11  1  0
 11 10  1  0
 11  9  1  0
  6  5  1  0
  6  4  1  0
 87 85  1  0
 86 87  1  0
 86 91  1  0
 87 88  1  0
 88 89  1  0
 89 90  1  0
 90 91  1  0
 90 92  1  0
 92 93  1  0
 93 94  1  0
 94 95  1  0
 76 96  1  6
 52 97  1  6
M  STY  1   1 SUP
M  SLB  1   1   1
M  SAL   1  1  84
M  SBL   1  2  69  72
M  SMT   1 N
M  END