
  SciTegic12211613262D

 26 28  0  0  0  0            999 V2000
   -1.2964    1.4973    0.0000 C   0  0
   -2.6111    0.7486    0.0000 N   0  0
   -2.6111   -0.7486    0.0000 C   0  0
   -1.2964   -1.4973    0.0000 C   0  0
    0.0000   -0.7486    0.0000 C   0  0
    1.2964   -1.4973    0.0000 C   0  0
    2.5929   -0.7486    0.0000 C   0  0
    2.5929    0.7486    0.0000 N   0  0
    1.2964    1.4973    0.0000 C   0  0
    0.0000    0.7486    0.0000 C   0  0
   -1.2928    2.6973    0.0000 O   0  0
   -3.6486    1.3517    0.0000 C   0  0
   -1.2919   -2.9980    0.0000 C   0  0
    0.0099   -3.7437    0.0000 C   0  0
    0.0151   -5.2437    0.0000 C   0  0
   -1.2813   -5.9982    0.0000 C   0  0
   -2.5829   -5.2528    0.0000 C   0  0
   -2.5882   -3.7528    0.0000 C   0  0
   -3.8816   -6.0051    0.0000 O   0  0
   -4.9221   -5.4073    0.0000 C   0  0
    1.3191   -5.9869    0.0000 O   0  0
    2.3553   -5.3817    0.0000 C   0  0
   -1.2791   -7.4991    0.0000 C   0  0
   -2.5773   -8.2522    0.0000 N   0  0
   -2.5755   -9.4522    0.0000 C   0  0
   -3.6176   -7.6540    0.0000 C   0  0
  1  2  1  0
  2  3  1  0
  3  4  2  0
  4  5  1  0
  5  6  2  0
  6  7  1  0
  7  8  2  0
  8  9  1  0
  9 10  2  0
  1 10  1  0
  5 10  1  0
  1 11  2  0
  2 12  1  0
 13 14  1  0
 14 15  2  0
 15 16  1  0
 16 17  2  0
 17 18  1  0
 13 18  2  0
 19 20  1  0
 17 19  1  0
 21 22  1  0
 15 21  1  0
 24 25  1  0
 24 26  1  0
 23 24  1  0
 16 23  1  0
  4 13  1  0
M  END