
          11280715472D 1   1.00000     0.00000     0

 24 26  0     0  0            999 V2000
    1.9542    2.2333    0.0000 N   0  0  3  0  0  0           0  0  0
   -1.6083   -2.3000    0.0000 C   0  0  0  0  0  0           0  0  0
   -2.3208   -2.7042    0.0000 N   0  0  0  0  0  0           0  0  0
    1.9542    1.4083    0.0000 C   0  0  0  0  0  0           0  0  0
    1.2417    2.6458    0.0000 C   0  0  0  0  0  0           0  0  0
   -0.8958   -2.7125    0.0000 N   0  0  0  0  0  0           0  0  0
    0.5167    2.2333    0.0000 C   0  0  0  0  0  0           0  0  0
    1.2417    0.9958    0.0000 C   0  0  0  0  0  0           0  0  0
   -0.1833    1.0000    0.0000 O   0  0  0  0  0  0           0  0  0
    2.6667    2.6458    0.0000 C   0  0  3  0  0  0           0  0  0
    0.5292    1.4125    0.0000 C   0  0  3  0  0  0           0  0  0
   -0.1833    0.1750    0.0000 C   0  0  0  0  0  0           0  0  0
   -0.1833   -2.3042    0.0000 C   0  0  0  0  0  0           0  0  0
   -0.1833   -1.4792    0.0000 C   0  0  0  0  0  0           0  0  0
   -0.8958   -0.2375    0.0000 C   0  0  0  0  0  0           0  0  0
    0.5292   -0.2292    0.0000 C   0  0  0  0  0  0           0  0  0
    0.5292   -1.0667    0.0000 C   0  0  0  0  0  0           0  0  0
   -0.8958   -1.0667    0.0000 C   0  0  0  0  0  0           0  0  0
   -3.0333   -2.2917    0.0000 C   0  0  0  0  0  0           0  0  0
   -1.5958   -1.4792    0.0000 C   0  0  0  0  0  0           0  0  0
    2.6667    3.4708    0.0000 C   0  0  0  0  0  0           0  0  0
    3.3792    2.2333    0.0000 C   0  0  0  0  0  0           0  0  0
   -3.0333   -1.4667    0.0000 C   0  0  0  0  0  0           0  0  0
   -2.3083   -1.0625    0.0000 C   0  0  0  0  0  0           0  0  0
  2  6  1  0     0  0
  3  2  1  0     0  0
  4  1  1  0     0  0
  5  1  1  0     0  0
  6 13  1  0     0  0
  7  5  1  0     0  0
  8  4  1  0     0  0
  9 11  1  0     0  0
 10  1  1  0     0  0
 11  7  1  0     0  0
 12  9  1  0     0  0
 13 14  1  0     0  0
 14 17  2  0     0  0
 15 12  1  0     0  0
 16 12  2  0     0  0
 17 16  1  0     0  0
 18 15  2  0     0  0
 19  3  2  0     0  0
 20  2  2  0     0  0
 21 10  1  0     0  0
 22 10  1  0     0  0
 23 24  2  0     0  0
 24 20  1  0     0  0
 11  8  1  0     0  0
 14 18  1  0     0  0
 23 19  1  0     0  0
M  END