
          11280714462D 1   1.00000     0.00000     0

 21 22  0     0  0            999 V2000
    3.3042   -2.4042    0.0000 C   0  0  0  0  0  0           0  0  0
    3.3125   -3.0042    0.0000 N   0  0  3  0  0  0           0  0  0
    2.7875   -2.1042    0.0000 C   0  0  0  0  0  0           0  0  0
    3.0125   -3.9292    0.0000 N   0  0  0  0  0  0           0  0  0
    2.8292   -3.3500    0.0000 C   0  0  0  0  0  0           0  0  0
    2.7875   -1.5000    0.0000 C   0  0  0  0  0  0           0  0  0
    3.7917   -3.3625    0.0000 C   0  0  0  0  0  0           0  0  0
    3.6042   -3.9292    0.0000 C   0  0  0  0  0  0           0  0  0
    3.3042   -1.1917    0.0000 O   0  0  0  0  0  0           0  0  0
    3.8292   -2.1000    0.0000 C   0  0  0  0  0  0           0  0  0
    4.4042   -1.3292    0.0000 C   0  0  3  0  0  0           0  0  0
    5.4292   -1.7500    0.0000 N   0  0  3  0  0  0           0  0  0
    4.8292   -1.7500    0.0000 C   0  0  0  0  0  0           0  0  0
    3.8250   -1.4917    0.0000 C   0  0  0  0  0  0           0  0  0
    2.2667   -2.4042    0.0000 C   0  0  0  0  0  0           0  0  0
    4.5500   -0.7500    0.0000 O   0  0  0  0  0  0           0  0  0
    2.2667   -1.2000    0.0000 C   0  0  0  0  0  0           0  0  0
    5.7792   -2.2292    0.0000 C   0  0  0  0  0  0           0  0  0
    5.7792   -1.2625    0.0000 C   0  0  0  0  0  0           0  0  0
    1.7500   -2.1042    0.0000 C   0  0  0  0  0  0           0  0  0
    1.7500   -1.5000    0.0000 C   0  0  0  0  0  0           0  0  0
  2  1  1  0     0  0
  3  1  1  0     0  0
  4  5  2  0     0  0
  5  2  1  0     0  0
  6  3  1  0     0  0
  7  2  1  0     0  0
  8  7  2  0     0  0
  9  6  1  0     0  0
 10  1  2  0     0  0
 11 14  1  0     0  0
 12 13  1  0     0  0
 13 11  1  0     0  0
 14  9  1  0     0  0
 15  3  2  0     0  0
 16 11  1  0     0  0
 17  6  2  0     0  0
 18 12  1  0     0  0
 19 12  1  0     0  0
 20 15  1  0     0  0
 21 20  2  0     0  0
  8  4  1  0     0  0
 21 17  1  0     0  0
M  END