
          11280714492D 1   1.00000     0.00000     0

 18 19  0     1  0            999 V2000
    6.8792   -7.2417    0.0000 O   0  0  0  0  0  0           0  0  0
    6.3917   -7.9167    0.0000 C   0  0  0  0  0  0           0  0  0
    6.3292   -3.9542    0.0000 N   0  0  3  0  0  0           0  0  0
    6.3917   -6.5792    0.0000 C   0  0  2  0  0  0           0  0  0
    5.6167   -7.6542    0.0000 C   0  0  0  0  0  0           0  0  0
    5.6167   -6.8292    0.0000 C   0  0  1  0  0  0           0  0  0
    5.6167   -4.3667    0.0000 C   0  0  1  0  0  0           0  0  0
    4.9042   -5.6042    0.0000 C   0  0  0  0  0  0           0  0  0
    6.6542   -8.6917    0.0000 O   0  0  0  0  0  0           0  0  0
    5.6167   -5.1917    0.0000 C   0  0  0  0  0  0           0  0  0
    4.9042   -6.4167    0.0000 C   0  0  0  0  0  0           0  0  0
    7.0417   -4.3667    0.0000 C   0  0  0  0  0  0           0  0  0
    6.3292   -3.1292    0.0000 C   0  0  0  0  0  0           0  0  0
    6.6542   -5.7917    0.0000 C   0  0  0  0  0  0           0  0  0
    4.9042   -3.9542    0.0000 C   0  0  0  0  0  0           0  0  0
    5.6167   -2.7167    0.0000 C   0  0  0  0  0  0           0  0  0
    4.9042   -3.1292    0.0000 C   0  0  0  0  0  0           0  0  0
    5.6042   -6.0042    0.0000 H   0  0  0  0  0  0           0  0  0
  2  1  1  0     0  0
  3  7  1  0     0  0
  4  1  1  0     0  0
  5  2  1  0     0  0
  6  4  1  0     0  0
  7 10  1  1     0  0
  8 11  1  0     0  0
  9  2  2  0     0  0
 10  8  2  0     0  0
  6 11  1  1     0  0
 12  3  1  0     0  0
 13  3  1  0     0  0
  4 14  1  6     0  0
 15  7  1  0     0  0
 16 17  1  0     0  0
 17 15  1  0     0  0
  6 18  1  6     0  0
  5  6  1  0     0  0
 16 13  1  0     0  0
M  END