
  CDK    9/16/09,10:6

 47 49  0  0  0  0  0  0  0  0999 V2000
   17.5531  -25.8207    0.0000 C   0  0  0  0  0  0  0  0  0  0  0  0
   17.5531  -26.6480    0.0000 C   0  0  0  0  0  0  0  0  0  0  0  0
   18.2682  -27.0615    0.0000 C   0  0  0  0  0  0  0  0  0  0  0  0
   18.9834  -26.6480    0.0000 C   0  0  0  0  0  0  0  0  0  0  0  0
   18.9834  -25.8207    0.0000 C   0  0  0  0  0  0  0  0  0  0  0  0
   18.2682  -25.4071    0.0000 C   0  0  0  0  0  0  0  0  0  0  0  0
   18.2670  -24.5845    0.0000 O   0  0  0  0  0  0  0  0  0  0  0  0
   18.2670  -27.8841    0.0000 O   0  0  0  0  0  0  0  0  0  0  0  0
   16.8416  -25.4135    0.0000 C   0  0  0  0  0  0  0  0  0  0  0  0
   16.8396  -24.5909    0.0000 C   0  0  0  0  0  0  0  0  0  0  0  0
   16.1234  -24.1790    0.0000 C   0  0  0  0  0  0  0  0  0  0  0  0
   17.5490  -24.1755    0.0000 C   0  0  0  0  0  0  0  0  0  0  0  0
   17.5470  -23.3530    0.0000 C   0  0  0  0  0  0  0  0  0  0  0  0
   18.2612  -22.9423    0.0000 C   0  0  0  0  0  0  0  0  0  0  0  0
   16.8355  -22.9457    0.0000 O   0  0  0  0  0  0  0  0  0  0  0  0
   16.8335  -22.1231    0.0000 C   0  0  0  0  0  0  0  0  0  0  0  0
   18.2592  -22.1197    0.0000 C   0  0  0  0  0  0  0  0  0  0  0  0
   18.9727  -23.3495    0.0000 O   0  0  0  0  0  0  0  0  0  0  0  0
   18.9687  -21.7043    0.0000 C   0  0  0  0  0  0  0  0  0  0  0  0
   17.5430  -21.7078    0.0000 C   0  0  0  0  0  0  0  0  0  0  0  0
   19.6849  -22.1162    0.0000 C   0  0  0  0  0  0  0  0  0  0  0  0
   20.3940  -21.7011    0.0000 C   0  0  0  0  0  0  0  0  0  0  0  0
   19.6869  -22.9388    0.0000 C   0  0  0  0  0  0  0  0  0  0  0  0
   21.2151  -21.6985    0.0000 C   0  0  0  0  0  0  0  0  0  0  0  0
   21.9262  -22.1121    0.0000 C   0  0  0  0  0  0  0  0  0  0  0  0
   21.4269  -20.9044    0.0000 O   0  0  0  0  0  0  0  0  0  0  0  0
   20.2944  -20.8853    0.0000 O   0  0  0  0  0  0  0  0  0  0  0  0
   19.5374  -20.5653    0.0000 C   0  0  0  0  0  0  0  0  0  0  0  0
   19.4338  -19.7442    0.0000 O   0  0  0  0  0  0  0  0  0  0  0  0
   18.8800  -21.0611    0.0000 N   0  0  0  0  0  0  0  0  0  0  0  0
   22.2255  -20.6924    0.0000 C   0  0  0  0  0  0  0  0  0  0  0  0
   21.9242  -22.9347    0.0000 C   0  0  0  0  0  0  0  0  0  0  0  0
   21.2080  -23.3419    0.0000 C   0  0  0  0  0  0  0  0  0  0  0  0
   21.2059  -24.1645    0.0000 C   0  0  0  0  0  0  0  0  0  0  0  0
   21.9200  -24.5799    0.0000 C   0  0  0  0  0  0  0  0  0  0  0  0
   19.6989  -25.4125    0.0000 N   0  0  0  0  0  0  0  0  0  0  0  0
   19.6998  -24.5899    0.0000 C   0  0  0  0  0  0  0  0  0  0  0  0
   18.9851  -24.1755    0.0000 O   0  0  0  0  0  0  0  0  0  0  0  0
   16.8426  -27.0615    0.0000 N   0  0  0  0  0  0  0  0  0  0  0  0
   16.1166  -26.6458    0.0000 C   0  0  0  0  0  0  0  0  0  0  0  0
   15.3937  -27.0668    0.0000 C   0  0  0  0  0  0  0  0  0  0  0  0
   14.6677  -26.6511    0.0000 N   0  0  0  0  0  0  0  0  0  0  0  0
   14.5742  -25.8205    0.0000 C   0  0  0  0  0  0  0  0  0  0  0  0
   13.7553  -25.6495    0.0000 C   0  0  0  0  0  0  0  0  0  0  0  0
   13.3397  -26.3755    0.0000 C   0  0  0  0  0  0  0  0  0  0  0  0
   13.9017  -26.9951    0.0000 C   0  0  0  0  0  0  0  0  0  0  0  0
   19.8070  -23.3483    0.0000 C   0  0  0  0  0  0  0  0  0  0  0  0
  4  5  2  0  0  0  0 
 22 24  1  0  0  0  0 
 10 12  1  0  0  0  0 
 24 25  1  0  0  0  0 
  5  6  1  0  0  0  0 
 24 26  1  1  0  0  0 
 12 13  1  0  0  0  0 
 22 27  1  6  0  0  0 
 27 28  1  0  0  0  0 
 13 14  1  0  0  0  0 
 28 29  2  0  0  0  0 
  6  7  2  0  0  0  0 
 28 30  1  0  0  0  0 
 13 15  1  6  0  0  0 
 26 31  1  0  0  0  0 
  1  2  2  0  0  0  0 
 25 32  2  0  0  0  0 
 15 16  1  0  0  0  0 
 32 33  1  0  0  0  0 
  3  8  2  0  0  0  0 
 33 34  2  0  0  0  0 
 14 17  1  0  0  0  0 
 34 35  1  0  0  0  0 
  1  6  1  0  0  0  0 
  5 36  1  0  0  0  0 
 14 18  1  1  0  0  0 
 36 37  1  0  0  0  0 
  1  9  1  0  0  0  0 
 37 38  2  0  0  0  0 
 37 34  1  0  0  0  0 
 17 19  1  0  0  0  0 
  2 39  1  0  0  0  0 
  2  3  1  0  0  0  0 
 39 40  1  0  0  0  0 
 17 20  1  1  0  0  0 
 40 41  1  0  0  0  0 
  9 10  1  0  0  0  0 
 41 42  1  0  0  0  0 
 42 43  1  0  0  0  0 
 19 21  2  0  0  0  0 
  3  4  1  0  0  0  0 
 21 22  1  0  0  0  0 
 10 11  1  1  0  0  0 
 43 44  1  0  0  0  0 
 44 45  1  0  0  0  0 
 45 46  1  0  0  0  0 
 46 42  1  0  0  0  0 
 21 23  1  0  0  0  0 
 18 47  1  0  0  0  0 
M  END