
          11280715362D 1   1.00000     0.00000     0

 33 35  0     0  0            999 V2000
    3.7000    0.3500    0.0000 S   0  0  3  0  0  0           0  0  0
    0.1250   -1.7292    0.0000 C   0  0  0  0  0  0           0  0  0
    0.1250   -0.9042    0.0000 C   0  0  0  0  0  0           0  0  0
    4.5250    0.3500    0.0000 C   0  0  0  0  0  0           0  0  0
    3.6917   -0.4750    0.0000 O   0  0  0  0  0  0           0  0  0
    3.6917    1.1750    0.0000 O   0  0  0  0  0  0           0  0  0
    2.9792    0.7583    0.0000 N   0  0  0  0  0  0           0  0  0
    3.7000   -2.1417    0.0000 C   0  0  0  0  0  0           0  0  0
    0.8417   -0.4917    0.0000 C   0  0  0  0  0  0           0  0  0
   -0.5875   -2.1417    0.0000 C   0  0  0  0  0  0           0  0  0
    0.8417   -2.1417    0.0000 C   0  0  0  0  0  0           0  0  0
   -1.2958   -3.3750    0.0000 N   0  0  0  0  0  0           0  0  0
    3.7000   -2.9667    0.0000 O   0  0  0  0  0  0           0  0  0
    4.9292   -0.3625    0.0000 C   0  0  0  0  0  0           0  0  0
    4.9292    1.0625    0.0000 C   0  0  0  0  0  0           0  0  0
    6.1667    0.3500    0.0000 C   0  0  0  0  0  0           0  0  0
    4.4125   -1.7292    0.0000 O   0  0  0  0  0  0           0  0  0
    0.8417    0.3375    0.0000 C   0  0  0  0  0  0           0  0  0
    5.7542   -0.3625    0.0000 C   0  0  0  0  0  0           0  0  0
    5.7500    1.0708    0.0000 C   0  0  0  0  0  0           0  0  0
    6.9917    0.3583    0.0000 I   0  0  0  0  0  0           0  0  0
    2.2667    0.3458    0.0000 C   0  0  0  0  0  0           0  0  0
   -0.5833   -2.9625    0.0000 C   0  0  0  0  0  0           0  0  0
   -0.5875   -0.4917    0.0000 C   0  0  0  0  0  0           0  0  0
   -0.5875    0.3333    0.0000 C   0  0  0  0  0  0           0  0  0
    2.9792   -1.7292    0.0000 C   0  0  0  0  0  0           0  0  0
   -2.0125   -2.9625    0.0000 C   0  0  0  0  0  0           0  0  0
    1.5542   -1.7292    0.0000 C   0  0  0  0  0  0           0  0  0
    1.5542    0.7500    0.0000 C   0  0  0  0  0  0           0  0  0
   -1.3000   -1.7250    0.0000 C   0  0  0  0  0  0           0  0  0
    0.1250    0.7500    0.0000 C   0  0  0  0  0  0           0  0  0
    2.2667   -2.1417    0.0000 C   0  0  0  0  0  0           0  0  0
   -2.0125   -2.1375    0.0000 C   0  0  0  0  0  0           0  0  0
  2  3  1  0     0  0
  3  9  2  0     0  0
  4  1  1  0     0  0
  5  1  2  0     0  0
  6  1  2  0     0  0
  7  1  1  0     0  0
  8 26  1  0     0  0
  9 18  1  0     0  0
 10  2  1  0     0  0
 11  2  2  0     0  0
 12 23  2  0     0  0
 13  8  2  0     0  0
 14  4  2  0     0  0
 15  4  1  0     0  0
 16 20  1  0     0  0
 17  8  1  0     0  0
 18 29  1  0     0  0
 19 14  1  0     0  0
 20 15  2  0     0  0
 21 16  1  0     0  0
 22  7  1  0     0  0
 23 10  1  0     0  0
 24 25  2  0     0  0
 25 31  1  0     0  0
 26 32  1  0     0  0
 27 33  2  0     0  0
 11 28  1  0     0  0
 29 22  1  0     0  0
 30 10  2  0     0  0
 31 18  2  0     0  0
 32 28  1  0     0  0
 33 30  1  0     0  0
 16 19  2  0     0  0
  3 24  1  0     0  0
 27 12  1  0     0  0
M  END