
  CDK    9/16/09,9:58

 20 23  0  0  0  0  0  0  0  0999 V2000
    4.0697  -20.8102    0.0000 C   0  0  0  0  0  0  0  0  0  0  0  0
    4.0684  -21.6380    0.0000 C   0  0  0  0  0  0  0  0  0  0  0  0
    4.7817  -22.0511    0.0000 C   0  0  0  0  0  0  0  0  0  0  0  0
    4.7797  -20.3973    0.0000 C   0  0  0  0  0  0  0  0  0  0  0  0
    5.4980  -20.8062    0.0000 C   0  0  0  0  0  0  0  0  0  0  0  0
    5.4985  -21.6334    0.0000 C   0  0  0  0  0  0  0  0  0  0  0  0
    6.2855  -21.8886    0.0000 N   0  0  0  0  0  0  0  0  0  0  0  0
    6.7714  -21.2190    0.0000 C   0  0  0  0  0  0  0  0  0  0  0  0
    6.2846  -20.5501    0.0000 N   0  0  0  0  0  0  0  0  0  0  0  0
    7.5967  -21.2184    0.0000 N   0  0  0  0  0  0  0  0  0  0  0  0
    8.0097  -21.9328    0.0000 C   0  0  0  0  0  0  0  0  0  0  0  0
    7.5972  -22.6442    0.0000 C   0  0  0  0  0  0  0  0  0  0  0  0
    8.0069  -23.3564    0.0000 C   0  0  0  0  0  0  0  0  0  0  0  0
    8.8325  -23.3602    0.0000 S   0  0  0  0  0  0  0  0  0  0  0  0
    8.8355  -21.9268    0.0000 C   0  0  0  0  0  0  0  0  0  0  0  0
    9.2437  -22.6437    0.0000 C   0  0  0  0  0  0  0  0  0  0  0  0
   10.0667  -22.6478    0.0000 C   0  0  0  0  0  0  0  0  0  0  0  0
   10.4826  -21.9356    0.0000 C   0  0  0  0  0  0  0  0  0  0  0  0
   10.0695  -21.2178    0.0000 C   0  0  0  0  0  0  0  0  0  0  0  0
    9.2477  -21.2174    0.0000 C   0  0  0  0  0  0  0  0  0  0  0  0
  4  1  1  0  0  0  0 
  8 10  1  0  0  0  0 
  5  6  1  0  0  0  0 
 10 11  1  0  0  0  0 
 11 12  1  0  0  0  0 
  2  3  1  0  0  0  0 
  3  6  2  0  0  0  0 
 11 15  1  0  0  0  0 
 12 13  1  0  0  0  0 
 13 14  1  0  0  0  0 
 14 16  1  0  0  0  0 
  1  2  2  0  0  0  0 
  5  4  2  0  0  0  0 
 15 16  2  0  0  0  0 
  6  7  1  0  0  0  0 
 16 17  1  0  0  0  0 
  7  8  1  0  0  0  0 
 17 18  2  0  0  0  0 
  8  9  2  0  0  0  0 
 18 19  1  0  0  0  0 
  9  5  1  0  0  0  0 
 19 20  2  0  0  0  0 
 20 15  1  0  0  0  0 
M  END