
          11280715502D 1   1.00000     0.00000     0

 47 51  0     1  0            999 V2000
   -1.3608   -2.0097    0.0000 C   0  0  0  0  0  0           0  0  0
   -0.9410   -2.7227    0.0000 C   0  0  0  0  0  0           0  0  0
   -0.1155   -2.7147    0.0000 C   0  0  0  0  0  0           0  0  0
    0.2912   -1.9945    0.0000 C   0  0  0  0  0  0           0  0  0
   -0.1336   -1.2807    0.0000 C   0  0  0  0  0  0           0  0  0
   -0.9578   -1.2922    0.0000 C   0  0  0  0  0  0           0  0  0
    0.2691   -0.5606    0.0000 C   0  0  0  0  0  0           0  0  0
    1.0941   -0.5493    0.0000 N   0  0  3  0  0  0           0  0  0
   -0.1531    0.1482    0.0000 O   0  0  0  0  0  0           0  0  0
    1.5150   -1.2610    0.0000 C   0  0  1  0  0  0           0  0  0
    2.3364   -1.2518    0.0000 C   0  0  0  0  0  0           0  0  0
    2.7430   -0.5334    0.0000 N   0  0  3  0  0  0           0  0  0
    2.3220    0.1772    0.0000 C   0  0  0  0  0  0           0  0  0
    1.4943    0.1696    0.0000 C   0  0  0  0  0  0           0  0  0
    1.1103   -1.9800    0.0000 C   0  0  0  0  0  0           0  0  0
    1.5222   -2.6929    0.0000 C   0  0  0  0  0  0           0  0  0
    1.1918   -3.4470    0.0000 C   0  0  0  0  0  0           0  0  0
    1.8039   -3.9977    0.0000 N   0  0  0  0  0  0           0  0  0
    2.3452   -2.7805    0.0000 C   0  0  0  0  0  0           0  0  0
    2.5158   -3.5846    0.0000 C   0  0  0  0  0  0           0  0  0
    3.2961   -3.8374    0.0000 C   0  0  0  0  0  0           0  0  0
    3.9063   -3.2871    0.0000 C   0  0  0  0  0  0           0  0  0
    3.7312   -2.4807    0.0000 C   0  0  0  0  0  0           0  0  0
    2.9512   -2.2317    0.0000 C   0  0  0  0  0  0           0  0  0
    0.2957   -3.4269    0.0000 C   0  0  3  0  0  0           0  0  0
    1.0062   -3.0074    0.0000 F   0  0  0  0  0  0           0  0  0
    0.7118   -4.1395    0.0000 F   0  0  0  0  0  0           0  0  0
   -0.4167   -3.8429    0.0000 F   0  0  0  0  0  0           0  0  0
   -2.1858   -2.0181    0.0000 C   0  0  3  0  0  0           0  0  0
   -2.1829   -2.8437    0.0000 F   0  0  0  0  0  0           0  0  0
   -2.1993   -1.1935    0.0000 F   0  0  0  0  0  0           0  0  0
   -3.0134   -2.0276    0.0000 F   0  0  0  0  0  0           0  0  0
    3.5681   -0.5253    0.0000 C   0  0  0  0  0  0           0  0  0
    3.9735    0.1932    0.0000 C   0  0  0  0  0  0           0  0  0
    4.7986    0.2014    0.0000 N   0  0  0  0  0  0           0  0  0
    3.5540    0.9037    0.0000 C   0  0  0  0  0  0           0  0  0
    5.2182   -0.5090    0.0000 O   0  0  0  0  0  0           0  0  0
    6.0432   -0.5009    0.0000 C   0  0  0  0  0  0           0  0  0
    6.4628   -1.2113    0.0000 C   0  0  3  0  0  0           0  0  0
    6.8673   -1.9210    0.0000 C   0  0  0  0  0  0           0  0  0
    7.1693   -0.8014    0.0000 N   0  0  3  0  0  0           0  0  0
    5.7534   -1.6325    0.0000 C   0  0  0  0  0  0           0  0  0
    7.8791   -1.2139    0.0000 C   0  0  0  0  0  0           0  0  0
    8.5835   -0.8075    0.0000 C   0  0  0  0  0  0           0  0  0
    8.5859    0.0097    0.0000 O   0  0  0  0  0  0           0  0  0
    7.8779    0.4188    0.0000 C   0  0  0  0  0  0           0  0  0
    7.1672    0.0107    0.0000 C   0  0  0  0  0  0           0  0  0
  8 14  1  0     0  0
 25 26  1  0     0  0
 10 11  1  0     0  0
 25 27  1  0     0  0
 11 12  1  0     0  0
 25 28  1  0     0  0
 12 13  1  0     0  0
  1 29  1  0     0  0
 13 14  1  0     0  0
 29 30  1  0     0  0
  5  7  1  0     0  0
 29 31  1  0     0  0
 10 15  1  1     0  0
 29 32  1  0     0  0
  3  4  2  0     0  0
 12 33  1  0     0  0
 15 16  1  0     0  0
 33 34  1  0     0  0
 16 17  2  0     0  0
 34 35  2  0     0  0
  7  8  1  0     0  0
 34 36  1  0     0  0
 35 37  1  0     0  0
 17 18  1  0     0  0
 37 38  1  0     0  0
 18 20  1  0     0  0
 38 39  1  0     0  0
 19 16  1  0     0  0
  7  9  2  0     0  0
  8 10  1  0     0  0
 19 20  2  0     0  0
  4  5  1  0     0  0
 20 21  1  0     0  0
  2  3  1  0     0  0
 21 22  2  0     0  0
 39 40  1  0     0  0
  5  6  2  0     0  0
 39 41  1  0     0  0
 22 23  1  0     0  0
 39 42  1  0     0  0
 41 43  1  0     0  0
  6  1  1  0     0  0
 23 24  2  0     0  0
 24 19  1  0     0  0
  1  2  2  0     0  0
  3 25  1  0     0  0
 41 47  1  0     0  0
 43 44  1  0     0  0
 44 45  1  0     0  0
 45 46  1  0     0  0
 46 47  1  0     0  0
M  END