
  SciTegic01161211242D

 30 31  0  0  0  0            999 V2000
    0.3168    3.8022    0.0000 N   0  0
    1.5656    2.8889    0.0000 C   0  0
   -1.0251    3.1871    0.0000 C   0  0
   -0.3908   10.6410    0.0000 N   0  0
    0.4462    5.2971    0.0000 C   0  0
   -0.2587   12.1359    0.0000 C   0  0
   -0.6547    7.6525    0.0000 N   0  0
    0.0186    0.7828    0.0000 C   0  0
    1.3979    1.3979    0.0000 C   0  0
   -1.1742    1.6588    0.0000 C   0  0
    2.6644    3.3712    0.0000 O   0  0
   -2.0023    3.8835    0.0000 O   0  0
    0.8373    9.7796    0.0000 C   0  0
   -1.7507   10.0081    0.0000 C   0  0
    1.1002   12.7710    0.0000 C   0  0
   -0.7837    6.1572    0.0000 C   0  0
   -1.8827    8.5140    0.0000 C   0  0
    0.7053    8.2854    0.0000 C   0  0
    8.6909    6.7423    0.0000 Cl  0  0
    6.1909    6.7423    0.0000 Cl  0  0
    2.3321   11.9137    0.0000 O   0  0
   -0.8574   -0.4287    0.0000 C   0  0
    1.4351    0.3168    0.0000 C   0  0
   -1.4881   12.9954    0.0000 C   0  0
    1.2298   14.2654    0.0000 C   0  0
    3.4185   12.4233    0.0000 C   0  0
    0.0186   -1.6401    0.0000 C   0  0
    1.4351   -1.1556    0.0000 C   0  0
   -1.3586   14.4898    0.0000 C   0  0
    0.0004   15.1248    0.0000 C   0  0
  1  2  1  0
  1  3  1  0
  1  5  1  0
  4  6  1  0
  2  9  1  0
  8  9  1  0
  3 10  1  0
  8 10  1  0
  2 11  2  0
  3 12  2  0
  4 13  1  0
  4 14  1  0
  6 15  1  0
  5 16  1  0
  7 16  1  0
  7 17  1  0
 14 17  1  0
  7 18  1  0
 13 18  1  0
 15 21  1  0
  8 22  1  0
  8 23  1  0
  6 24  2  0
 15 25  2  0
 21 26  1  0
 22 27  1  0
 23 28  1  0
 27 28  1  0
 24 29  1  0
 25 30  1  0
 29 30  2  0
M  END