
  SciTegic12011114592D

 25 27  0  0  0  0            999 V2000
    2.5607  -22.3470    0.0000 C   0  0
    3.3852  -22.3470    0.0000 C   0  0
    2.9729  -21.6330    0.0000 C   0  0
    2.6800  -23.5878    0.0000 C   0  0
    2.6788  -24.4146    0.0000 C   0  0
    3.3932  -24.8272    0.0000 C   0  0
    3.3915  -23.1753    0.0000 C   0  0
    4.1063  -23.5842    0.0000 C   0  0
    4.1051  -24.4167    0.0000 C   0  0
    4.8215  -24.8316    0.0000 C   0  0
    5.5437  -24.4187    0.0000 C   0  0
    5.5449  -23.5863    0.0000 C   0  0
    4.8239  -23.1666    0.0000 O   0  0
    4.8192  -25.6560    0.0000 O   0  0
    6.2582  -23.1783    0.0000 C   0  0
    6.9714  -23.5941    0.0000 C   0  0
    7.6859  -23.1842    0.0000 C   0  0
    7.6884  -22.3589    0.0000 C   0  0
    6.9704  -21.9451    0.0000 C   0  0
    6.2588  -22.3573    0.0000 C   0  0
    3.3929  -25.6516    0.0000 O   0  0
    1.9659  -23.1757    0.0000 O   0  0
    4.1017  -21.9365    0.0000 C   0  0
    4.0993  -21.1121    0.0000 C   0  0
    8.4028  -21.9475    0.0000 O   0  0
 11 12  2  0
 12 13  1  0
  8  7  2  0
 10 14  2  0
  7  4  1  0
  8  9  1  0
 15 16  2  0
  2  1  1  0
 16 17  1  0
  4  5  2  0
 17 18  2  0
  3  2  1  0
 18 19  1  0
  5  6  1  0
 19 20  2  0
 20 15  1  0
 12 15  1  0
  6  9  2  0
  6 21  1  0
  4 22  1  0
  7  2  1  0
  8 13  1  0
  2 23  1  0
  9 10  1  0
 23 24  2  0
 10 11  1  0
 18 25  1  0
M  END