
  CDK    9/16/09,9:48

 32 36  0  0  0  0  0  0  0  0999 V2000
    0.1168  -17.4717    0.0000 O   0  0  0  0  0  0  0  0  0  0  0  0
   -0.6728  -17.7296    0.0000 C   0  0  0  0  0  0  0  0  0  0  0  0
   -0.6690  -18.5584    0.0000 C   0  0  0  0  0  0  0  0  0  0  0  0
    0.1204  -18.8113    0.0000 C   0  0  0  0  0  0  0  0  0  0  0  0
    0.6054  -18.1392    0.0000 C   0  0  0  0  0  0  0  0  0  0  0  0
   -1.3398  -17.2490    0.0000 C   0  0  0  0  0  0  0  0  0  0  0  0
   -1.2546  -16.4276    0.0000 C   0  0  0  0  0  0  0  0  0  0  0  0
   -1.9225  -15.9450    0.0000 C   0  0  0  0  0  0  0  0  0  0  0  0
   -2.6760  -16.2828    0.0000 N   0  0  0  0  0  0  0  0  0  0  0  0
   -2.7574  -17.1077    0.0000 C   0  0  0  0  0  0  0  0  0  0  0  0
   -2.0885  -17.5867    0.0000 C   0  0  0  0  0  0  0  0  0  0  0  0
   -1.3332  -19.0463    0.0000 C   0  0  0  0  0  0  0  0  0  0  0  0
   -2.0885  -18.7125    0.0000 C   0  0  0  0  0  0  0  0  0  0  0  0
   -2.7532  -19.1994    0.0000 C   0  0  0  0  0  0  0  0  0  0  0  0
   -1.2424  -19.8627    0.0000 C   0  0  0  0  0  0  0  0  0  0  0  0
   -1.9040  -20.3516    0.0000 C   0  0  0  0  0  0  0  0  0  0  0  0
   -2.6686  -20.0200    0.0000 C   0  0  0  0  0  0  0  0  0  0  0  0
   -3.2203  -20.6447    0.0000 C   0  0  0  0  0  0  0  0  0  0  0  0
   -2.7967  -21.3625    0.0000 C   0  0  0  0  0  0  0  0  0  0  0  0
   -1.9832  -21.1813    0.0000 C   0  0  0  0  0  0  0  0  0  0  0  0
   -4.0413  -20.5664    0.0000 N   0  0  0  0  0  0  0  0  0  0  0  0
   -4.5197  -21.2382    0.0000 O   0  0  0  0  0  0  0  0  0  0  0  0
    1.4286  -18.1368    0.0000 C   0  0  0  0  0  0  0  0  0  0  0  0
    1.8421  -18.8515    0.0000 C   0  0  0  0  0  0  0  0  0  0  0  0
    2.6633  -18.8507    0.0000 C   0  0  0  0  0  0  0  0  0  0  0  0
    3.0770  -18.1368    0.0000 N   0  0  0  0  0  0  0  0  0  0  0  0
    2.6635  -17.4221    0.0000 C   0  0  0  0  0  0  0  0  0  0  0  0
    1.8361  -17.4214    0.0000 C   0  0  0  0  0  0  0  0  0  0  0  0
    3.9018  -18.1371    0.0000 C   0  0  0  0  0  0  0  0  0  0  0  0
    4.3139  -18.8516    0.0000 C   0  0  0  0  0  0  0  0  0  0  0  0
    5.1386  -18.8519    0.0000 O   0  0  0  0  0  0  0  0  0  0  0  0
    5.5507  -19.5663    0.0000 C   0  0  0  0  0  0  0  0  0  0  0  0
 15 12  1  0  0  0  0 
  3 12  1  0  0  0  0 
 16 17  1  0  0  0  0 
  7  8  1  0  0  0  0 
  3  4  1  0  0  0  0 
  8  9  2  0  0  0  0 
  4  5  2  0  0  0  0 
  9 10  1  0  0  0  0 
 17 18  1  0  0  0  0 
 18 19  1  0  0  0  0 
 19 20  1  0  0  0  0 
 20 16  1  0  0  0  0 
  5  1  1  0  0  0  0 
 18 21  2  0  0  0  0 
 10 11  2  0  0  0  0 
 21 22  1  0  0  0  0 
 23 24  1  0  0  0  0 
 11  6  1  0  0  0  0 
  2  6  1  0  0  0  0 
  2  3  2  0  0  0  0 
 12 13  2  0  0  0  0 
  6  7  2  0  0  0  0 
 23 28  1  0  0  0  0 
 24 25  1  0  0  0  0 
 25 26  1  0  0  0  0 
 26 27  1  0  0  0  0 
 27 28  1  0  0  0  0 
  5 23  1  0  0  0  0 
 13 14  1  0  0  0  0 
 26 29  1  0  0  0  0 
 14 17  2  0  0  0  0 
 29 30  1  0  0  0  0 
  1  2  1  0  0  0  0 
 30 31  1  0  0  0  0 
 16 15  2  0  0  0  0 
 31 32  1  0  0  0  0 
M  END