
  SciTegic01111613442D

 26 28  0  0  0  0            999 V2000
   -3.9492    0.8772    0.0000 N   0  0
   -2.5987    1.5004    0.0000 N   0  0
   -4.9546    1.9903    0.0000 C   0  0
   -2.7390    2.9810    0.0000 C   0  0
   -4.2067    3.2905    0.0000 C   0  0
    2.5988   -1.5004    0.0000 S   0  0
   -6.4444    1.8313    0.0000 C   0  0
    1.2990   -0.7500    0.0000 C   0  0
   -1.2990    0.7500    0.0000 C   0  0
   -1.6193    3.9803    0.0000 C   0  0
    3.6384   -0.9011    0.0000 O   0  0
    2.5984   -2.7004    0.0000 O   0  0
    3.6377   -2.1009    0.0000 N   0  0
    1.2990    0.7500    0.0000 C   0  0
    0.0000   -1.5000    0.0000 C   0  0
   -1.2990   -0.7500    0.0000 C   0  0
    0.0000    1.5000    0.0000 C   0  0
   -6.9314    0.7346    0.0000 F   0  0
   -7.1510    2.8013    0.0000 F   0  0
   -7.6377    1.7046    0.0000 F   0  0
   -0.1673    3.6256    0.0000 C   0  0
   -2.0458    5.4204    0.0000 C   0  0
   -1.0096    6.5049    0.0000 C   0  0
    0.8689    4.7101    0.0000 C   0  0
    0.4478    6.1498    0.0000 C   0  0
    1.2768    7.0174    0.0000 C   0  0
  2  1  1  0
  3  1  2  0
  4  2  1  0
  5  3  1  0
  6  8  1  0
  7  3  1  0
  8 14  2  0
  9  2  1  0
 10  4  1  0
 11  6  2  0
 12  6  2  0
 13  6  1  0
 14 17  1  0
 15 16  2  0
 16  9  1  0
 17  9  2  0
 18  7  1  0
 19  7  1  0
 20  7  1  0
 21 10  1  0
 22 10  2  0
 23 22  1  0
 24 21  2  0
 25 23  2  0
 26 25  1  0
  5  4  2  0
  8 15  1  0
 24 25  1  0
M  END