
  SciTegic09261414482D

 17 19  0  0  0  0            999 V2000
    7.7505  -11.9278    0.0000 N   0  0
    7.7505  -11.1016    0.0000 C   0  0
    8.4595  -10.6906    0.0000 C   0  0
    9.1749  -11.1016    0.0000 C   0  0
    9.1749  -11.9278    0.0000 C   0  0
    8.4595  -12.3388    0.0000 C   0  0
    7.0351  -12.3388    0.0000 C   0  0
    5.6003  -12.3388    0.0000 O   0  0
    6.3157  -11.9278    0.0000 C   0  0  2  0  0  0
    6.3157  -11.1016    0.0000 C   0  0
    5.6003  -10.6906    0.0000 O   0  0
    4.8871  -11.1016    0.0000 C   0  0
    4.8871  -11.9278    0.0000 C   0  0
    4.1718  -10.6906    0.0000 C   0  0
    3.4564  -11.1016    0.0000 C   0  0
    3.4564  -11.9278    0.0000 C   0  0
    4.1718  -12.3388    0.0000 C   0  0
  1  2  1  0
  2  3  1  0
  3  4  1  0
  4  5  1  0
  5  6  1  0
  1  6  1  0
  8  9  1  0
  9 10  1  0
 10 11  1  0
 11 12  1  0
 12 13  1  0
  8 13  1  0
 14 15  1  0
 15 16  2  0
 16 17  1  0
 13 17  2  0
 12 14  2  0
  9  7  1  6
  1  7  1  0
M  END