
  SciTegic02271514512D

 25 27  0  0  0  0            999 V2000
    6.8299   -3.3982    0.0000 N   0  0
    5.0088   -4.5649    0.0000 C   0  0
    5.8035   -4.3735    0.0000 N   0  0
    6.0351   -3.5896    0.0000 C   0  0
    5.4720   -2.9970    0.0000 C   0  0
    4.6773   -3.1884    0.0000 C   0  0
    4.4456   -3.9724    0.0000 N   0  0
    5.7036   -2.2130    0.0000 F   0  0
    4.0288   -6.4395    0.0000 C   0  0
    4.0068   -5.6224    0.0000 C   0  0
    3.2881   -5.2328    0.0000 C   0  0
    2.5914   -5.6604    0.0000 C   0  0
    2.6134   -6.4776    0.0000 C   0  0
    3.3321   -6.8672    0.0000 N   0  0
    4.8127   -6.6711    0.0000 N   0  0
    4.7772   -5.3489    0.0000 C   0  0
    5.2753   -5.9971    0.0000 C   0  0
    1.8727   -5.2709    0.0000 Cl  0  0
    7.3928   -3.9905    0.0000 C   0  0  2  0  0  0
    8.1873   -3.7992    0.0000 C   0  0
    7.1613   -4.7742    0.0000 C   0  0
    8.7502   -4.3916    0.0000 N   0  0
    9.5447   -4.2002    0.0000 C   0  0
    8.5187   -5.1753    0.0000 C   0  0
    8.4188   -3.0155    0.0000 O   0  0
  2  3  1  0
  3  4  2  0
  4  5  1  0
  5  6  2  0
  6  7  1  0
  2  7  2  0
  5  8  1  0
  9 10  1  0
 10 11  2  0
 11 12  1  0
 12 13  2  0
 13 14  1  0
  9 14  2  0
 16 17  2  0
 15 17  1  0
  9 15  1  0
 10 16  1  0
 12 18  1  0
  2 16  1  0
  1  4  1  0
  1 19  1  0
 19 20  1  0
 19 21  1  6
 20 22  1  0
 22 23  1  0
 22 24  1  0
 20 25  2  0
M  END