
  CDK    12/20/10,15:21

 30 33  0  0  0  0  0  0  0  0999 V2000
    6.9288   -3.5635    0.0000 C   0  0  0  0  0  0  0  0  0  0  0  0
    7.5128   -3.2174    0.0000 C   0  0  0  0  0  0  0  0  0  0  0  0
    8.2087   -3.1546    0.0000 C   0  0  0  0  0  0  0  0  0  0  0  0
    7.6373   -3.5658    0.0000 C   0  0  0  0  0  0  0  0  0  0  0  0
    8.3775   -2.4146    0.0000 C   0  0  0  0  0  0  0  0  0  0  0  0
    8.6156   -3.8737    0.0000 C   0  0  0  0  0  0  0  0  0  0  0  0
    8.1022   -4.2258    0.0000 C   0  0  0  0  0  0  0  0  0  0  0  0
    7.1327   -4.1762    0.0000 C   0  0  0  0  0  0  0  0  0  0  0  0
    8.9497   -2.7813    0.0000 H   0  0  0  0  0  0  0  0  0  0  0  0
    9.0824   -1.9967    0.0000 C   0  0  0  0  0  0  0  0  0  0  0  0
    8.3704   -1.5909    0.0000 C   0  0  0  0  0  0  0  0  0  0  0  0
    6.5137   -2.8446    0.0000 N   0  0  0  0  0  0  0  0  0  0  0  0
    5.6882   -2.8446    0.0000 C   0  0  0  0  0  0  0  0  0  0  0  0
    4.9914   -0.8139    0.0000 C   0  0  0  0  0  0  0  0  0  0  0  0
    5.2765   -2.1316    0.0000 C   0  0  0  0  0  0  0  0  0  0  0  0
    5.6159   -1.3739    0.0000 C   0  0  0  0  0  0  0  0  0  0  0  0
    4.2693   -1.2422    0.0000 N   0  0  0  0  0  0  0  0  0  0  0  0
    4.4480   -2.0529    0.0000 N   0  0  0  0  0  0  0  0  0  0  0  0
    3.5124   -0.9139    0.0000 C   0  0  0  0  0  0  0  0  0  0  0  0
    3.4183   -0.0943    0.0000 C   0  0  0  0  0  0  0  0  0  0  0  0
    2.6616    0.2341    0.0000 C   0  0  0  0  0  0  0  0  0  0  0  0
    2.5675    1.0537    0.0000 C   0  0  0  0  0  0  0  0  0  0  0  0
    5.2748   -3.5605    0.0000 O   0  0  0  0  0  0  0  0  0  0  0  0
    5.0716    0.0071    0.0000 C   0  0  0  0  0  0  0  0  0  0  0  0
    5.8367    0.3530    0.0000 C   0  0  0  0  0  0  0  0  0  0  0  0
    5.9185    1.1868    0.0000 C   0  0  0  0  0  0  0  0  0  0  0  0
    5.2360    1.6757    0.0000 C   0  0  0  0  0  0  0  0  0  0  0  0
    4.4696    1.3247    0.0000 C   0  0  0  0  0  0  0  0  0  0  0  0
    4.3915    0.4919    0.0000 C   0  0  0  0  0  0  0  0  0  0  0  0
    1.8058    1.3841    0.0000 C   0  0  0  0  0  0  0  0  0  0  0  0
  4  8  1  6  0  0  0 
  3  9  1  1  0  0  0 
  1  2  1  0  0  0  0 
  3  2  1  0  0  0  0 
  5 10  1  0  0  0  0 
  1  4  1  0  0  0  0 
  5 11  1  0  0  0  0 
  4  5  1  0  0  0  0 
  5  3  1  0  0  0  0 
  3  6  1  0  0  0  0 
  6  7  1  0  0  0  0 
 17 18  1  0  0  0  0 
 16 14  1  0  0  0  0 
 15 16  1  0  0  0  0 
 14 17  1  0  0  0  0 
 18 15  2  0  0  0  0 
 17 19  1  0  0  0  0 
 19 20  1  0  0  0  0 
 20 21  1  0  0  0  0 
 21 22  1  0  0  0  0 
 15 13  1  0  0  0  0 
 13 23  2  0  0  0  0 
 24 25  2  0  0  0  0 
 25 26  1  0  0  0  0 
 26 27  2  0  0  0  0 
 27 28  1  0  0  0  0 
 28 29  2  0  0  0  0 
 29 24  1  0  0  0  0 
 14 24  1  0  0  0  0 
 13 12  1  0  0  0  0 
  7  4  1  0  0  0  0 
 22 30  1  0  0  0  0 
  1 12  1  1  0  0  0 
M  END