
  SciTegic12171313022D

 31 34  0  0  0  0            999 V2000
   12.5281   -9.0749    0.0000 C   0  0
   12.5270   -9.9022    0.0000 C   0  0
   13.2418  -10.3151    0.0000 C   0  0
   13.9582   -9.9018    0.0000 C   0  0
   13.9554   -9.0712    0.0000 C   0  0
   13.2400   -8.6621    0.0000 C   0  0
   11.8122  -10.3142    0.0000 N   0  0
   11.8115  -11.1392    0.0000 C   0  0
   11.0967  -11.5511    0.0000 N   0  0
   12.5257  -11.5522    0.0000 O   0  0
   11.0961  -12.3761    0.0000 C   0  0
   10.4326  -12.8589    0.0000 N   0  0
   10.6869  -13.6438    0.0000 N   0  0
   11.5120  -13.6444    0.0000 C   0  0
   11.7674  -12.8600    0.0000 C   0  0
   11.9965  -14.3122    0.0000 C   0  0
   11.6604  -15.0656    0.0000 C   0  0
   12.8170  -14.2266    0.0000 C   0  0
   12.4046  -15.0207    0.0000 C   0  0
    9.6367  -12.6417    0.0000 C   0  0
    9.4320  -11.8456    0.0000 C   0  0
    8.6369  -11.6284    0.0000 C   0  0
    8.0500  -12.2095    0.0000 C   0  0
    8.2636  -13.0107    0.0000 C   0  0
    9.0583  -13.2242    0.0000 C   0  0
    7.2537  -11.9934    0.0000 C   0  0
   14.6293   -8.5952    0.0000 N   0  0
   15.4098   -8.8582    0.0000 C   0  0
   15.9036   -8.1973    0.0000 N   0  0
   15.4277   -7.5234    0.0000 N   0  0
   14.6398   -7.7679    0.0000 C   0  0
  1  2  2  0
  2  3  1  0
  3  4  2  0
  4  5  1  0
  5  6  2  0
  6  1  1  0
  2  7  1  0
  7  8  1  0
  8  9  1  0
  8 10  2  0
  9 11  1  0
 11 12  1  0
 12 13  1  0
 13 14  2  0
 14 15  1  0
 15 11  2  0
 14 16  1  0
 16 17  1  0
 16 18  1  0
 16 19  1  0
 12 20  1  0
 20 21  2  0
 21 22  1  0
 22 23  2  0
 23 24  1  0
 24 25  2  0
 25 20  1  0
 23 26  1  0
  5 27  1  0
 27 28  1  0
 28 29  2  0
 29 30  1  0
 30 31  2  0
 31 27  1  0
M  END