
          02060813462D 1   1.00000     0.00000     0

 21 22  0     0  0            999 V2000
   10.6679    0.1100    0.0000 C   0  0  0  0  0  0           0  0  0
   10.6665   -0.7175    0.0000 C   0  0  0  0  0  0           0  0  0
   11.3795   -1.1304    0.0000 C   0  0  0  0  0  0           0  0  0
   12.0988   -0.7170    0.0000 C   0  0  0  0  0  0           0  0  0
   12.0956    0.1141    0.0000 C   0  0  0  0  0  0           0  0  0
   11.3775    0.5228    0.0000 C   0  0  0  0  0  0           0  0  0
   12.8136   -1.1289    0.0000 N   0  0  0  0  0  0           0  0  0
   13.5276   -0.7157    0.0000 C   0  0  0  0  0  0           0  0  0
   14.2400   -1.1325    0.0000 C   0  0  0  0  0  0           0  0  0
   14.9537   -0.7200    0.0000 C   0  0  0  0  0  0           0  0  0
   14.9533    0.1058    0.0000 C   0  0  0  0  0  0           0  0  0
   14.2335    0.5174    0.0000 C   0  0  0  0  0  0           0  0  0
   13.5229    0.1026    0.0000 C   0  0  0  0  0  0           0  0  0
   15.6668    0.5198    0.0000 N   0  0  0  0  0  0           0  0  0
   16.3821    0.1090    0.0000 C   0  0  0  0  0  0           0  0  0
   17.0957    0.5231    0.0000 C   0  0  0  0  0  0           0  0  0
   17.8111    0.1122    0.0000 C   0  0  0  0  0  0           0  0  0
   18.5245    0.5263    0.0000 C   0  0  0  0  0  0           0  0  0
   16.3840   -0.7159    0.0000 O   0  0  0  0  0  0           0  0  0
   19.2404    0.1178    0.0000 O   0  0  0  0  0  0           0  0  0
   18.5232    1.3536    0.0000 O   0  0  0  0  0  0           0  0  0
  2  3  1  0     0  0
 10 11  2  0     0  0
  5  6  2  0     0  0
 11 12  1  0     0  0
  6  1  1  0     0  0
 12 13  2  0     0  0
 13  8  1  0     0  0
  1  2  2  0     0  0
 11 14  1  0     0  0
  4  7  1  0     0  0
 14 15  1  0     0  0
  3  4  2  0     0  0
 15 16  1  0     0  0
  7  8  1  0     0  0
 16 17  2  0     0  0
 17 18  1  0     0  0
  8  9  2  0     0  0
 15 19  2  0     0  0
  4  5  1  0     0  0
  9 10  1  0     0  0
 18 20  1  0     0  0
 18 21  2  0     0  0
M  END