
  SciTegic11111309142D

 52 56  0  0  1  0            999 V2000
   -1.4181  -13.4366    0.0000 C   0  0
   -0.9503  -14.1192    0.0000 N   0  0
   -0.1297  -14.0532    0.0000 C   0  0
    0.2278  -13.3117    0.0000 C   0  0
   -0.2400  -12.6291    0.0000 C   0  0
   -1.0654  -12.6882    0.0000 C   0  0
   -1.9345   -6.6985    0.0000 C   0  0
   -3.0561   -9.4519    0.0000 O   0  0
   -3.5411  -10.1193    0.0000 C   0  0
   -3.2385  -10.8868    0.0000 C   0  0
   -3.7400  -11.4984    0.0000 C   0  0
   -3.4594  -12.2322    0.0000 C   0  0
   -2.6828  -12.3359    0.0000 C   0  0
   -2.2212  -11.7018    0.0000 C   0  0
   -2.5436  -10.9798    0.0000 C   0  0
   -4.5543  -11.3664    0.0000 Cl  0  0
   -2.0496  -10.3190    0.0000 Cl  0  0
   -1.4008  -11.7881    0.0000 S   0  0
   -1.3146  -10.9676    0.0000 O   0  0
   -1.4870  -12.6085    0.0000 O   0  0
    0.4706  -12.2160    0.0000 C   0  0
    1.1843  -12.6281    0.0000 N   0  0
    0.4706  -11.3902    0.0000 O   0  0
    1.1843  -13.4547    0.0000 C   0  0
    1.8942  -13.8644    0.0000 C   0  0
    2.6044  -13.4543    0.0000 N   0  0
    2.6044  -12.6326    0.0000 C   0  0
    1.8944  -12.2182    0.0000 C   0  0
    3.3153  -13.8648    0.0000 C   0  0
    3.3153  -14.6854    0.0000 O   0  0
    4.0336  -13.4501    0.0000 C   0  0  2  0  0  0
   -3.3927   -8.6959    0.0000 C   0  0
   -4.0637   -7.1885    0.0000 C   0  0
   -4.5504   -7.8630    0.0000 C   0  0
   -4.2118   -8.6157    0.0000 C   0  0
   -3.2399   -7.2756    0.0000 C   0  0
   -2.9080   -8.0321    0.0000 C   0  0
   -2.0885   -8.1217    0.0000 N   0  0
   -1.6002   -7.4556    0.0000 C   0  0
   -2.7555   -6.6119    0.0000 C   0  0
   -0.7775   -7.5441    0.0000 C   0  0
   -3.0913   -5.8556    0.0000 C   0  0
    4.7502  -13.8638    0.0000 C   0  0
    5.4669  -13.4501    0.0000 C   0  0
    6.1834  -13.8638    0.0000 C   0  0
    6.9001  -13.4501    0.0000 N   0  3
    7.6167  -13.8638    0.0000 C   0  0
    6.9001  -12.6226    0.0000 C   0  0
    7.6108  -13.0319    0.0000 C   0  0
    4.0336  -12.6226    0.0000 N   0  0
   -1.3064  -14.8661    0.0000 C   0  0
   -0.5807  -11.8777    0.0000 N   0  0
  5 21  1  0
 21 22  1  0
 21 23  2  0
 22 24  1  0
 22 28  1  0
 24 25  1  0
 25 26  1  0
 26 27  1  0
 27 28  1  0
 26 29  1  0
 29 30  2  0
 29 31  1  0
  3  4  1  0
  8 32  1  0
 32 37  2  0
  4  5  1  0
 36 33  2  0
  5  6  1  0
 33 34  1  0
 34 35  2  0
 35 32  1  0
  1  2  1  0
  1  6  1  0
 36 37  1  0
  2  3  1  0
 37 38  1  0
  8  9  1  0
 38 39  2  0
 39  7  1  0
  9 10  1  0
  7 40  2  0
 40 36  1  0
 10 11  2  0
 39 41  1  0
 11 12  1  0
 40 42  1  0
 12 13  2  0
 31 43  1  0
 13 14  1  0
 43 44  1  0
 14 15  2  0
 44 45  1  0
 15 10  1  0
 45 46  1  0
 11 16  1  0
 46 47  1  0
 15 17  1  0
 46 48  1  0
 14 18  1  0
 46 49  1  0
 18 19  2  0
 31 50  1  1
 18 20  2  0
  2 51  1  0
 52  5  1  0
 18 52  1  0
M  CHG  1  46   1
M  END