
  SciTegic01161211252D

 59 59  0  0  0  0            999 V2000
    3.3292   -5.8625    0.0000 N   0  0
    2.6167   -5.4500    0.0000 C   0  0
    4.5333   -5.0208    0.0000 C   0  0
    7.0583   -2.2083    0.0000 C   0  0
    5.8083   -2.9042    0.0000 N   0  0
    5.3833   -3.6083    0.0000 C   0  0
    4.1458   -5.7458    0.0000 C   0  0  1  0  0  0
    6.6333   -2.9167    0.0000 C   0  0  2  0  0  0
    4.1333   -4.3000    0.0000 N   0  0
    6.6625   -1.4875    0.0000 N   0  0
    0.4708   -5.8583    0.0000 C   0  0
    1.1875   -5.4417    0.0000 N   0  0
    4.5583   -3.5958    0.0000 C   0  0  2  0  0  0
    1.9000   -5.8542    0.0000 C   0  0  1  0  0  0
    0.4542   -9.1500    0.0000 C   0  0
    7.0833   -0.7833    0.0000 C   0  0  2  0  0  0
    6.6833   -0.0583    0.0000 C   0  0
    7.0333   -3.6375    0.0000 C   0  0
    1.1667   -9.5667    0.0000 N   0  0
    2.6208   -4.6208    0.0000 O   0  0
    1.1875   -2.9667    0.0000 N   0  3
    5.3583   -5.0375    0.0000 O   0  0
    7.8833   -2.2250    0.0000 O   0  0
    5.7833   -4.3292    0.0000 O   0  0
    0.4708   -6.6875    0.0000 O   0  0
    4.1583   -2.8708    0.0000 C   0  0
    5.8625   -0.0417    0.0000 O   0  0
    7.9083   -0.7958    0.0000 C   0  0
    0.4583   -8.3250    0.0000 N   0  0
   -0.2583   -9.5583    0.0000 N   0  0
   -0.2458   -5.4417    0.0000 C   0  0  2  0  0  0
    3.1833   -6.6750    0.0000 C   0  0
    4.1667   -2.0500    0.0000 C   0  0
    7.1125    0.6500    0.0000 O   0  0
    4.1750   -0.3958    0.0000 C   0  0
    4.8833   -1.6417    0.0000 C   0  0
    3.4542   -1.6292    0.0000 C   0  0
    4.8875   -0.8167    0.0000 C   0  0
    3.4583   -0.8042    0.0000 C   0  0
    4.5083   -6.4875    0.0000 C   0  0
    4.1833    0.4250    0.0000 O   0  0
    0.4708   -3.3792    0.0000 C   0  0
    3.9125   -7.0625    0.0000 C   0  0
    0.4708   -4.2042    0.0000 C   0  0
    1.8958   -6.6833    0.0000 C   0  0
    1.9000   -3.3833    0.0000 C   0  0
    1.1875   -2.1458    0.0000 C   0  0
    1.9000   -2.5500    0.0000 C   0  0
    8.3333   -0.0917    0.0000 C   0  0
    6.6083   -4.3458    0.0000 C   0  0
    7.8583   -3.6542    0.0000 C   0  0
    7.4250   -4.3625    0.0000 C   0  0
   -0.2458   -4.6167    0.0000 C   0  0
    1.1750   -7.9167    0.0000 C   0  0
   -0.9583   -5.8583    0.0000 C   0  0
    1.1792   -7.0917    0.0000 C   0  0
    9.1583   -0.1042    0.0000 C   0  0
    7.9333    0.6417    0.0000 C   0  0
    6.0458   -7.2417    0.0000 Cl  0  5
  2  1  1  0
  7  3  1  6
  4  8  1  0
  5  6  1  0
  6 13  1  0
  7  1  1  0
  8  5  1  0
  9  3  1  0
 10  4  1  0
 11 12  1  0
 14 12  1  6
 13  9  1  0
 14  2  1  0
 15 29  1  0
 16 10  1  6
 17 16  1  0
  8 18  1  6
 19 15  2  0
 20  2  2  0
 21 42  1  0
 22  3  2  0
 23  4  2  0
 24  6  2  0
 25 11  2  0
 13 26  1  1
 27 17  2  0
 28 16  1  0
 29 54  1  0
 30 15  1  0
 31 11  1  0
 32  1  1  0
 33 26  1  0
 34 17  1  0
 35 39  1  0
 36 33  2  0
 37 33  1  0
 38 36  1  0
 39 37  2  0
 40  7  1  0
 41 35  1  0
 42 44  1  0
 43 32  1  0
 44 53  1  0
 45 14  1  0
 46 21  1  0
 47 21  1  0
 48 21  1  0
 49 28  1  0
 50 18  1  0
 51 18  1  0
 52 18  1  0
 53 31  1  0
 54 56  1  0
 31 55  1  1
 56 45  1  0
 57 49  1  0
 58 49  1  0
 40 43  1  0
 38 35  2  0
M  CHG  2  21   1  59  -1
M  END