
  SciTegic05071317042D

 24 26  0  0  0  0            999 V2000
    1.2450  -16.1622    0.0000 C   0  0
    1.2439  -16.9817    0.0000 C   0  0
    1.9519  -17.3907    0.0000 N   0  0
    2.6616  -16.9813    0.0000 C   0  0
    2.6587  -16.1586    0.0000 C   0  0
    1.9501  -15.7533    0.0000 C   0  0
    3.3649  -15.7473    0.0000 C   0  0
    3.3625  -14.9288    0.0000 O   0  0
    3.7830  -14.2281    0.0000 C   0  0
    4.0679  -16.1526    0.0000 C   0  0
    4.0645  -16.9648    0.0000 C   0  0
    4.7658  -17.3708    0.0000 C   0  0
    5.4696  -16.9657    0.0000 C   0  0
    3.3864  -13.5136    0.0000 N   0  0
    4.6000  -14.2419    0.0000 O   0  0
    3.8068  -12.8129    0.0000 C   0  0
    4.7657  -15.7480    0.0000 C   0  0
    5.4646  -16.1491    0.0000 C   0  0
    6.1593  -15.7445    0.0000 C   0  0
    6.1563  -14.9389    0.0000 C   0  0
    5.4528  -14.5397    0.0000 C   0  0
    4.7610  -14.9466    0.0000 C   0  0
    2.5693  -13.4998    0.0000 C   0  0
    1.9477  -14.9361    0.0000 C   0  0
  1  2  2  0
  2  3  1  0
  3  4  2  0
  4  5  1  0
  5  6  2  0
  6  1  1  0
  5  7  1  0
  7  8  1  0
  8  9  1  0
  7 10  1  0
 10 11  2  0
 11 12  1  0
 12 13  2  0
 13 18  1  0
 17 10  1  0
  9 14  1  0
  9 15  2  0
 14 16  1  0
 17 18  1  0
 18 19  2  0
 19 20  1  0
 20 21  2  0
 21 22  1  0
 22 17  2  0
 14 23  1  0
  6 24  1  0
M  END