
          11280715062D 1   1.00000     0.00000     0

 31 35  0     0  0            999 V2000
    3.5042    0.0583    0.0000 C   0  0  0  0  0  0           0  0  0
    3.5125    0.8708    0.0000 N   0  0  3  0  0  0           0  0  0
    2.8000   -0.3500    0.0000 C   0  0  0  0  0  0           0  0  0
    4.2292   -0.3500    0.0000 N   0  0  0  0  0  0           0  0  0
    7.7792    0.8625    0.0000 C   0  0  0  0  0  0           0  0  0
    7.3625    2.1333    0.0000 N   0  0  0  0  0  0           0  0  0
    7.1125    1.3458    0.0000 N   0  0  0  0  0  0           0  0  0
    8.1917    2.1333    0.0000 N   0  0  0  0  0  0           0  0  0
    2.8042    1.2833    0.0000 C   0  0  0  0  0  0           0  0  0
    8.4417    1.3500    0.0000 N   0  0  0  0  0  0           0  0  0
    3.5125   -1.5917    0.0000 N   0  0  0  0  0  0           0  0  0
    2.8000   -1.1792    0.0000 C   0  0  0  0  0  0           0  0  0
    7.7875    0.0375    0.0000 C   0  0  0  0  0  0           0  0  0
    4.2292   -1.1792    0.0000 C   0  0  0  0  0  0           0  0  0
    7.0792   -0.3750    0.0000 C   0  0  0  0  0  0           0  0  0
    2.0917    0.0583    0.0000 C   0  0  0  0  0  0           0  0  0
    4.2250    1.2833    0.0000 C   0  0  0  0  0  0           0  0  0
    6.3625    0.0375    0.0000 C   0  0  0  0  0  0           0  0  0
    2.0917    0.8750    0.0000 C   0  0  0  0  0  0           0  0  0
    2.8042    2.1083    0.0000 O   0  0  0  0  0  0           0  0  0
    5.6417   -0.3667    0.0000 C   0  0  0  0  0  0           0  0  0
    6.3625    0.8708    0.0000 C   0  0  0  0  0  0           0  0  0
    4.9417    0.8708    0.0000 C   0  0  0  0  0  0           0  0  0
    4.9292    0.0458    0.0000 C   0  0  0  0  0  0           0  0  0
    5.6500    1.2833    0.0000 C   0  0  0  0  0  0           0  0  0
    8.5000   -0.3667    0.0000 C   0  0  0  0  0  0           0  0  0
    2.0792   -1.5917    0.0000 C   0  0  0  0  0  0           0  0  0
    7.0750   -1.2000    0.0000 C   0  0  0  0  0  0           0  0  0
    4.9417   -1.5917    0.0000 C   0  0  0  0  0  0           0  0  0
    7.7875   -1.6125    0.0000 C   0  0  0  0  0  0           0  0  0
    8.5042   -1.2000    0.0000 C   0  0  0  0  0  0           0  0  0
  2  1  1  0     0  0
  3  1  1  0     0  0
  4  1  2  0     0  0
  5 13  1  0     0  0
  6  7  2  0     0  0
  7  5  1  0     0  0
  8 10  1  0     0  0
  9  2  1  0     0  0
 10  5  2  0     0  0
 11 14  2  0     0  0
 12  3  2  0     0  0
 13 15  2  0     0  0
 14  4  1  0     0  0
 15 18  1  0     0  0
 16  3  1  0     0  0
 17  2  1  0     0  0
 18 22  2  0     0  0
 19 16  1  0     0  0
 20  9  2  0     0  0
 21 24  2  0     0  0
 22 25  1  0     0  0
 23 17  1  0     0  0
 24 23  1  0     0  0
 25 23  2  0     0  0
 26 13  1  0     0  0
 27 12  1  0     0  0
 28 15  1  0     0  0
 29 14  1  0     0  0
 30 28  2  0     0  0
 31 30  1  0     0  0
 11 12  1  0     0  0
 19  9  1  0     0  0
 18 21  1  0     0  0
 31 26  2  0     0  0
  6  8  1  0     0  0
M  END