
  SciTegic01161211252D

 42 43  0  0  0  0            999 V2000
   -1.1958    1.2083    0.0000 C   0  0  1  0  0  0
   -1.9083    1.6208    0.0000 C   0  0
    0.9542    1.6208    0.0000 C   0  0  1  0  0  0
    1.6792    1.2083    0.0000 C   0  0
   -0.4708    1.6208    0.0000 C   0  0  1  0  0  0
   -2.6333    1.2083    0.0000 N   0  0
    2.3917    1.6208    0.0000 N   0  0
    0.2417    1.2083    0.0000 C   0  0  1  0  0  0
   -3.3458    1.6208    0.0000 C   0  0
    3.1167    1.2083    0.0000 C   0  0
   -1.1958    0.3833    0.0000 O   0  0
   -4.0708    1.2083    0.0000 C   0  0  2  0  0  0
    3.8292    1.6208    0.0000 C   0  0  2  0  0  0
    0.9542    2.4458    0.0000 O   0  0
   -1.9083    2.4458    0.0000 O   0  0
    1.6792    0.3833    0.0000 O   0  0
   -3.3458    2.4458    0.0000 O   0  0
    3.1167    0.3833    0.0000 O   0  0
   -0.4708    2.4458    0.0000 O   0  0
    0.2417    0.3833    0.0000 O   0  0
   -0.7833   -0.3292    0.0000 C   0  0
   -4.0708    0.3833    0.0000 C   0  0
    3.8292    2.4458    0.0000 C   0  0
    0.0167   -1.7417    0.0000 C   0  0
    0.4292   -2.4542    0.0000 C   0  0
    0.0167   -3.1667    0.0000 C   0  0
    0.0167   -0.3292    0.0000 C   0  0
   -1.2083   -1.0292    0.0000 C   0  0
   -0.7958   -1.7417    0.0000 C   0  0
    0.4292   -1.0292    0.0000 C   0  0
    0.4167   -3.8917    0.0000 C   0  0
   -4.7833    1.6208    0.0000 C   0  0
    4.5542    1.2083    0.0000 C   0  0
   -3.3458   -0.0417    0.0000 C   0  0
   -4.7833   -0.0417    0.0000 C   0  0
    4.5542    2.8708    0.0000 C   0  0
    3.1167    2.8708    0.0000 C   0  0
    0.0042   -4.5917    0.0000 C   0  0
    1.2417   -3.8792    0.0000 C   0  0
    0.4167   -5.3167    0.0000 C   0  0
    1.6542   -4.5917    0.0000 C   0  0
    1.2417   -5.3167    0.0000 C   0  0
  2  1  1  0
  3  8  1  0
  4  3  1  0
  5  1  1  0
  6  2  1  0
  7  4  1  0
  8  5  1  0
  9  6  1  0
 10  7  1  0
  1 11  1  1
 12  9  1  0
 13 10  1  0
  3 14  1  1
 15  2  2  0
 16  4  2  0
 17  9  2  0
 18 10  2  0
  5 19  1  6
  8 20  1  6
 21 11  1  0
 12 22  1  6
 13 23  1  6
 24 29  2  0
 25 24  1  0
 26 25  1  0
 27 21  1  0
 28 21  2  0
 29 28  1  0
 30 27  2  0
 31 26  1  0
 32 12  1  0
 33 13  1  0
 34 22  1  0
 35 22  1  0
 36 23  1  0
 37 23  1  0
 38 31  2  0
 39 31  1  0
 40 38  1  0
 41 39  2  0
 42 41  1  0
 30 24  1  0
 40 42  2  0
M  END