
  SciTegic11201309402D

 81 86  0  0  1  0            999 V2000
   12.7875   -5.9417    0.0000 N   0  0
   13.5750   -4.6250    0.0000 C   0  0
    6.0500   -6.4500    0.0000 C   0  0
    4.5542   -6.4500    0.0000 N   0  0
    3.8042   -6.0167    0.0000 C   0  0
    1.5542   -6.4500    0.0000 C   0  0
   13.5167   -5.4875    0.0000 C   0  0  1  0  0  0
    6.8000   -6.0167    0.0000 N   0  0
   -0.7083   -8.6417    0.0000 C   0  0
    2.3042   -6.0167    0.0000 N   0  0
    5.3042   -6.0167    0.0000 C   0  0  1  0  0  0
   12.8542   -4.1292    0.0000 N   0  0
    7.5500   -6.4500    0.0000 C   0  0  1  0  0  0
   12.0417   -6.3917    0.0000 C   0  0
    7.5500   -7.3167    0.0000 C   0  0
    3.0542   -6.4500    0.0000 C   0  0  1  0  0  0
    0.8042   -6.0167    0.0000 C   0  0  2  0  0  0
   15.3667   -0.4042    0.0000 C   0  0
    0.0542   -7.3167    0.0000 C   0  0
    8.3000   -6.0167    0.0000 C   0  0
    0.0542   -6.4500    0.0000 N   0  0
   12.2000   -2.7917    0.0000 C   0  0
    8.3000   -7.7500    0.0000 C   0  0
   12.9167   -3.2750    0.0000 C   0  0  2  0  0  0
   15.4250    0.4583    0.0000 N   0  0
   -1.2708  -10.1625    0.0000 C   0  0  2  0  0  0
    0.0375   -9.7750    0.0000 C   0  0  1  0  0  0
   -1.4333   -9.6917    0.0000 C   0  0  2  0  0  0
   14.3542   -4.2417    0.0000 O   0  0
    6.0500   -7.3167    0.0000 O   0  0
   -0.7083   -7.7542    0.0000 C   0  0
    3.8042   -5.1542    0.0000 O   0  0
    1.5542   -7.3167    0.0000 O   0  0
    0.0417   -8.9500    0.0000 C   0  0
   -1.2708   -9.3042    0.0000 C   0  0
   -1.4333   -8.9000    0.0000 C   0  0
    0.8042   -5.1542    0.0000 C   0  0
    3.0542   -7.3167    0.0000 C   0  0
   12.0625   -7.2542    0.0000 O   0  0
    8.3000   -5.1542    0.0000 O   0  0
   11.4250   -3.1750    0.0000 O   0  0
    0.8042   -7.7500    0.0000 O   0  0
    8.3000   -8.6125    0.0000 O   0  0
   -0.5083  -10.4625    0.0000 C   0  0
   -2.0750  -10.3875    0.0000 C   0  0
   -0.7125   -9.9625    0.0000 C   0  0
   14.5875   -0.7917    0.0000 N   0  0
    9.0500   -6.4500    0.0000 N   0  0
   16.0792   -0.8917    0.0000 N   0  0
   12.2542   -1.9292    0.0000 N   0  0
    5.3042   -5.1542    0.0000 C   0  0
    9.0500   -7.3167    0.0000 N   0  0
    1.5542   -4.7167    0.0000 C   0  0
   13.0000   -6.7792    0.0000 C   0  0
    3.0542   -3.8542    0.0000 C   0  0
    3.8042   -7.7500    0.0000 C   0  0
    2.3042   -5.1542    0.0000 C   0  0
    1.5542   -3.8542    0.0000 C   0  0
    3.0542   -4.7167    0.0000 C   0  0
    2.3042   -3.4250    0.0000 C   0  0
   14.1792   -6.0417    0.0000 C   0  0
   11.2875   -5.9750    0.0000 C   0  0
    3.8042   -3.4250    0.0000 O   0  0
   13.8625   -6.8417    0.0000 C   0  0
   13.6917   -2.8917    0.0000 C   0  0
   14.5292   -1.6542    0.0000 C   0  0
    9.7875   -6.0042    0.0000 C   0  0
    6.0500   -4.7167    0.0000 C   0  0
    4.5542   -4.7167    0.0000 C   0  0
    3.8042   -2.5542    0.0000 C   0  0
    3.8042   -8.6125    0.0000 C   0  0
    4.5542   -7.3167    0.0000 C   0  0
   10.5417   -6.4250    0.0000 C   0  0
   13.7542   -2.0292    0.0000 C   0  0
    4.5542   -2.1250    0.0000 C   0  0
    4.5542   -9.0417    0.0000 C   0  0
    5.3042   -7.7500    0.0000 C   0  0
    5.3042   -8.6125    0.0000 C   0  0
   -2.1958   -9.3917    0.0000 H   0  0
    0.8167  -10.0542    0.0000 H   0  0
   -1.3083  -10.9875    0.0000 H   0  0
  7  2  1  1
  3  8  1  0
 11  4  1  1
  5  4  1  0
  6 10  1  0
  7  1  1  0
 13  8  1  6
  9 31  1  0
 16 10  1  6
 11  3  1  0
 12  2  1  0
 13 20  1  0
 14  1  1  0
 13 15  1  0
 16  5  1  0
 17  6  1  0
 18 47  2  0
 19 21  1  0
 20 48  1  0
 17 21  1  6
 22 24  1  0
 23 15  1  0
 24 12  1  6
 25 18  1  0
 26 35  1  0
 27 34  1  0
 28 36  1  0
 29  2  2  0
 30  3  2  0
 31 19  1  0
 32  5  2  0
 33  6  2  0
 34  9  1  0
 35  9  1  0
 36  9  1  0
 17 37  1  0
 16 38  1  0
 39 14  2  0
 40 20  2  0
 41 22  2  0
 42 19  2  0
 43 23  2  0
 44 26  1  0
 45 28  1  0
 46 28  1  0
 47 66  1  0
 48 67  1  0
 49 18  1  0
 50 22  1  0
 11 51  1  0
 52 23  1  0
 53 37  1  0
 54  1  1  0
 55 60  1  0
 56 38  1  0
 57 53  2  0
 58 53  1  0
 59 57  1  0
 60 58  2  0
  7 61  1  0
 62 14  1  0
 63 55  1  0
 64 54  1  0
 24 65  1  0
 66 74  1  0
 67 73  1  0
 68 51  1  0
 69 51  1  0
 70 63  1  0
 71 56  2  0
 72 56  1  0
 73 62  1  0
 74 65  1  0
 75 70  1  0
 76 71  1  0
 77 72  2  0
 78 77  1  0
 28 79  1  6
 27 80  1  6
 26 81  1  1
 64 61  1  0
 78 76  2  0
 55 59  2  0
 46 27  1  0
 26 45  1  0
 44 27  1  0
M  END