
  Mrv0541 04051115152D          

 27 30  0  0  0  0            999 V2000
    1.2778   -2.8764    0.0000 N   0  0  0  0  0  0  0  0  0  0  0  0
    1.2778   -2.0514    0.0000 C   0  0  0  0  0  0  0  0  0  0  0  0
    0.5633   -1.6389    0.0000 N   0  0  0  0  0  0  0  0  0  0  0  0
   -0.1511   -2.0514    0.0000 C   0  0  0  0  0  0  0  0  0  0  0  0
   -0.1511   -2.8764    0.0000 C   0  0  0  0  0  0  0  0  0  0  0  0
    0.5633   -3.2889    0.0000 C   0  0  0  0  0  0  0  0  0  0  0  0
    0.5633   -4.1139    0.0000 N   0  0  0  0  0  0  0  0  0  0  0  0
   -0.9358   -3.1313    0.0000 N   0  0  0  0  0  0  0  0  0  0  0  0
   -1.4207   -2.4639    0.0000 C   0  0  0  0  0  0  0  0  0  0  0  0
   -0.9358   -1.7965    0.0000 N   0  0  0  0  0  0  0  0  0  0  0  0
   -2.6428    0.5530    0.0000 O   0  0  0  0  0  0  0  0  0  0  0  0
   -2.6428   -1.2418    0.0000 O   0  0  0  0  0  0  0  0  0  0  0  0
    1.6979    4.5892    0.0000 C   0  0  0  0  0  0  0  0  0  0  0  0
    2.2500    3.9761    0.0000 C   0  0  0  0  0  0  0  0  0  0  0  0
    0.8910    4.4177    0.0000 C   0  0  0  0  0  0  0  0  0  0  0  0
    1.9950    3.1915    0.0000 C   0  0  0  0  0  0  0  0  0  0  0  0
    0.6360    3.6331    0.0000 C   0  0  0  0  0  0  0  0  0  0  0  0
    0.9331    2.2353    0.0000 C   0  0  0  0  0  0  0  0  0  0  0  0
   -0.9358    1.1077    0.0000 C   0  0  0  0  0  0  0  0  0  0  0  0
   -0.7058   -0.3444    0.0000 O   0  0  0  0  0  0  0  0  0  0  0  0
    0.1262    2.0638    0.0000 S   0  0  0  0  0  0  0  0  0  0  0  0
   -0.1288    1.2792    0.0000 S   0  0  0  0  0  0  0  0  0  0  0  0
    1.1881    3.0200    0.0000 C   0  0  0  0  0  0  0  0  0  0  0  0
   -1.9753    0.0681    0.0000 C   0  0  1  0  0  0  0  0  0  0  0  0
   -1.9753   -0.7569    0.0000 C   0  0  2  0  0  0  0  0  0  0  0  0
   -1.1907    0.3230    0.0000 C   0  0  1  0  0  0  0  0  0  0  0  0
   -1.1907   -1.0118    0.0000 C   0  0  2  0  0  0  0  0  0  0  0  0
  2  1  2  0  0  0  0
  6  1  1  0  0  0  0
  2  3  1  0  0  0  0
  4  3  2  0  0  0  0
  4  5  1  0  0  0  0
  4 10  1  0  0  0  0
  5  6  2  0  0  0  0
  5  8  1  0  0  0  0
  6  7  1  0  0  0  0
  9  8  2  0  0  0  0
  9 10  1  0  0  0  0
 27 10  1  1  0  0  0
 24 11  1  6  0  0  0
 25 12  1  6  0  0  0
 13 14  2  0  0  0  0
 13 15  1  0  0  0  0
 14 16  1  0  0  0  0
 15 17  2  0  0  0  0
 16 23  2  0  0  0  0
 17 23  1  0  0  0  0
 18 21  1  0  0  0  0
 18 23  1  0  0  0  0
 19 22  1  0  0  0  0
 26 19  1  1  0  0  0
 26 20  1  0  0  0  0
 27 20  1  0  0  0  0
 21 22  1  0  0  0  0
 24 25  1  0  0  0  0
 24 26  1  0  0  0  0
 25 27  1  0  0  0  0
M  END