
  SciTegic05171617262D

 33 38  0  0  0  0            999 V2000
    1.0272    7.7555    0.0000 C   0  0
    1.7551    6.8015    0.0000 N   0  0
    1.3263    5.3613    0.0000 C   0  0
    2.5408    4.5455    0.0000 C   0  0
    2.5654    3.0449    0.0000 C   0  0
    1.2785    2.2729    0.0000 N   0  0
    0.0000    3.0035    0.0000 C   0  0
   -1.2988    2.2729    0.0000 C   0  0
   -1.2988    0.7306    0.0000 C   0  0
    0.0000    0.0000    0.0000 C   0  0
   -1.2988   -0.7509    0.0000 C   0  0
   -1.2988   -2.2526    0.0000 C   0  0
    0.0000   -3.0238    0.0000 N   0  0
    1.2785   -2.2526    0.0000 C   0  0
    1.2785   -0.7509    0.0000 C   0  0
    0.0052   -4.5245    0.0000 C   0  0
    1.2944   -5.2850    0.0000 C   0  0
    1.2697   -6.7977    0.0000 N   0  0
   -0.0345   -7.5327    0.0000 C   0  0
   -0.0499   -9.0297    0.0000 C   0  0
   -1.3541   -9.7646    0.0000 C   0  0
   -2.6430   -9.0026    0.0000 C   0  0
   -2.6276   -7.5056    0.0000 C   0  0
   -1.3234   -6.7707    0.0000 C   0  0
   -1.3080   -5.2737    0.0000 N   0  0
    1.2785    0.7306    0.0000 C   0  0
    2.3164    0.1283    0.0000 O   0  0
    3.7357    5.4212    0.0000 C   0  0
    5.2091    5.1196    0.0000 C   0  0
    6.2003    6.2716    0.0000 C   0  0
    5.7126    7.6848    0.0000 C   0  0
    4.2220    7.9805    0.0000 C   0  0
    3.2481    6.8344    0.0000 C   0  0
  1  2  1  0
  2  3  1  0
  3  4  2  0
  4  5  1  0
  5  6  1  0
  6  7  1  0
  7  8  1  0
  8  9  1  0
  9 10  1  0
 10 11  1  0
 11 12  1  0
 12 13  1  0
 13 14  1  0
 14 15  1  0
 10 15  1  0
 13 16  1  0
 16 17  2  0
 17 18  1  0
 18 19  2  0
 19 20  1  0
 20 21  2  0
 21 22  1  0
 22 23  2  0
 23 24  1  0
 19 24  1  0
 24 25  2  0
 16 25  1  0
 10 26  1  0
  6 26  1  0
 26 27  2  0
  4 28  1  0
 28 29  2  0
 29 30  1  0
 30 31  2  0
 31 32  1  0
 32 33  2  0
  2 33  1  0
 28 33  1  0
M  END