
  SciTegic01161211242D

 38 42  0  0  0  0            999 V2000
   -2.6071   -9.1170    0.0000 C   0  0
   -1.7804   -9.1161    0.0000 C   0  0
   -1.5238   -9.9013    0.0000 C   0  0
   -2.1937  -10.3885    0.0000 N   0  0
   -2.8593   -9.9013    0.0000 N   0  0
   -1.3653   -8.4061    0.0000 C   0  0
   -0.5385   -8.4133    0.0000 C   0  0
   -0.1206   -7.7020    0.0000 C   0  0
   -0.5284   -6.9830    0.0000 C   0  0
   -1.3584   -6.9798    0.0000 C   0  0
   -1.7726   -7.6917    0.0000 C   0  0
   -2.9987   -8.3952    0.0000 C   0  0
   -2.5635   -7.6922    0.0000 C   0  0
   -2.9546   -6.9659    0.0000 C   0  0
   -3.7810   -6.9414    0.0000 C   0  0
   -4.2145   -7.6493    0.0000 C   0  0
   -3.8207   -8.3727    0.0000 C   0  0
   -4.1738   -6.2151    0.0000 Cl  0  0
   -2.1950  -11.2143    0.0000 C   0  0
   -2.9107  -11.6260    0.0000 N   0  0
   -2.9119  -12.4518    0.0000 S   0  0
   -3.6277  -12.8635    0.0000 C   0  0
   -4.3397  -12.4471    0.0000 C   0  0
   -5.0549  -12.8582    0.0000 C   0  0
   -5.0566  -13.6848    0.0000 C   0  0
   -4.3371  -14.0986    0.0000 C   0  0
   -3.6248  -13.6852    0.0000 C   0  0
   -2.5064  -13.1618    0.0000 O   0  0
   -2.2020  -12.0316    0.0000 O   0  0
   -5.7718  -14.0975    0.0000 Cl  0  0
   -1.4804  -11.6282    0.0000 N   0  0
   -0.7647  -11.2164    0.0000 C   0  0
   -0.0539  -11.6338    0.0000 C   0  0
    0.6597  -11.2256    0.0000 C   0  0
    0.6652  -10.3995    0.0000 N   0  0
   -0.0491   -9.9833    0.0000 C   0  0
   -0.7690  -10.3933    0.0000 C   0  0
    1.3825   -9.9905    0.0000 C   0  0
 15 18  1  0
  4  5  1  0
  4 19  1  0
  9 10  1  0
 19 20  2  0
  5  1  2  0
 20 21  1  0
 10 11  2  0
 21 22  1  0
 11  6  1  0
 22 23  2  0
  2  6  1  0
 23 24  1  0
  1  2  1  0
 24 25  2  0
 25 26  1  0
 12 13  2  0
 26 27  2  0
 27 22  1  0
  6  7  2  0
 21 28  2  0
 13 14  1  0
 21 29  2  0
  2  3  1  0
 25 30  1  0
 14 15  2  0
 19 31  1  0
  7  8  1  0
 31 32  1  0
 32 33  1  0
 15 16  1  0
  3  4  1  0
 16 17  2  0
 17 12  1  0
  1 12  1  0
 32 37  1  0
 33 34  1  0
 34 35  1  0
 35 36  1  0
 36 37  1  0
  8  9  2  0
 35 38  1  0
M  END