
  CDK    9/15/10,16:21

 14 13  0  0  0  0  0  0  0  0999 V2000
   -2.4384    1.1596    0.0000 C   0  0  0  0  0  0  0  0  0  0  0  0
   -3.1529    1.5722    0.0000 C   0  0  0  0  0  0  0  0  0  0  0  0
   -3.8674    1.1596    0.0000 N   0  0  0  0  0  0  0  0  0  0  0  0
   -4.5818    1.5722    0.0000 C   0  0  0  0  0  0  0  0  0  0  0  0
   -5.2963    1.1596    0.0000 N   0  0  0  0  0  0  0  0  0  0  0  0
   -1.7279    0.7471    0.0000 C   0  0  0  0  0  0  0  0  0  0  0  0
   -2.0250    1.8736    0.0000 F   0  0  0  0  0  0  0  0  0  0  0  0
   -2.8487    0.4439    0.0000 F   0  0  0  0  0  0  0  0  0  0  0  0
   -1.0125    1.1579    0.0000 C   0  0  0  0  0  0  0  0  0  0  0  0
   -0.2990    0.7436    0.0000 C   0  0  0  0  0  0  0  0  0  0  0  0
   -1.0104    1.9829    0.0000 N   0  0  0  0  0  0  0  0  0  0  0  0
   -0.2982   -0.0827    0.0000 O   0  0  0  0  0  0  0  0  0  0  0  0
    0.4193    1.1530    0.0000 O   0  0  0  0  0  0  0  0  0  0  0  0
   -4.5818    2.3972    0.0000 N   0  0  0  0  0  0  0  0  0  0  0  0
  3  4  1  0  0  0  0 
  1  7  1  0  0  0  0 
  1  8  1  0  0  0  0 
  4  5  1  0  0  0  0 
  6  9  1  0  0  0  0 
  2  3  1  0  0  0  0 
  9 10  1  0  0  0  0 
  4 14  2  0  0  0  0 
  9 11  1  6  0  0  0 
  1  2  1  0  0  0  0 
  1  6  1  0  0  0  0 
 10 12  2  0  0  0  0 
 10 13  1  0  0  0  0 
M  END