
          11280715032D 1   1.00000     0.00000     0

 23 24  0     0  0            999 V2000
    3.2292   -2.7750    0.0000 N   0  0  3  0  0  0           0  0  0
    2.5042   -2.3542    0.0000 C   0  0  0  0  0  0           0  0  0
    3.9417   -2.3625    0.0000 C   0  0  0  0  0  0           0  0  0
    3.2250   -3.6042    0.0000 C   0  0  0  0  0  0           0  0  0
    2.5042   -1.5250    0.0000 C   0  0  0  0  0  0           0  0  0
    2.5042   -4.0167    0.0000 C   0  0  0  0  0  0           0  0  0
    3.2292   -1.1042    0.0000 C   0  0  0  0  0  0           0  0  0
    4.6542   -2.7750    0.0000 C   0  0  0  0  0  0           0  0  0
    3.9542   -1.7750    0.0000 O   0  0  0  0  0  0           0  0  0
    3.8917   -1.2417    0.0000 O   0  0  0  0  0  0           0  0  0
    4.6542   -3.6042    0.0000 O   0  0  0  0  0  0           0  0  0
    2.5042   -4.8417    0.0000 C   0  0  0  0  0  0           0  0  0
    3.2250   -0.2792    0.0000 O   0  0  0  0  0  0           0  0  0
    5.3667   -2.3625    0.0000 O   0  0  0  0  0  0           0  0  0
    3.9417   -4.0167    0.0000 C   0  0  0  0  0  0           0  0  0
    1.7917   -1.1125    0.0000 C   0  0  0  0  0  0           0  0  0
    1.7917   -2.7667    0.0000 C   0  0  0  0  0  0           0  0  0
    1.7917   -3.5917    0.0000 C   0  0  0  0  0  0           0  0  0
    3.9417   -4.8417    0.0000 C   0  0  0  0  0  0           0  0  0
    3.2250   -5.2542    0.0000 C   0  0  0  0  0  0           0  0  0
    1.7917   -5.2667    0.0000 C   0  0  0  0  0  0           0  0  0
    1.0792   -1.5250    0.0000 C   0  0  0  0  0  0           0  0  0
    1.0792   -2.3542    0.0000 C   0  0  0  0  0  0           0  0  0
  2  1  1  0     0  0
  3  1  1  0     0  0
  4  1  1  0     0  0
  5  2  1  0     0  0
  6  4  2  0     0  0
  7  5  1  0     0  0
  8  3  1  0     0  0
  9  3  2  0     0  0
 10  7  2  0     0  0
 11  8  2  0     0  0
 12  6  1  0     0  0
 13  7  1  0     0  0
 14  8  1  0     0  0
 15  4  1  0     0  0
 16  5  2  0     0  0
 17  2  2  0     0  0
 18  6  1  0     0  0
 19 15  2  0     0  0
 20 19  1  0     0  0
 21 12  1  0     0  0
 22 23  2  0     0  0
 23 17  1  0     0  0
 20 12  2  0     0  0
 22 16  1  0     0  0
M  END