
  SciTegic01161211252D

 28 30  0  0  0  0            999 V2000
    0.2776   -7.5687    0.0000 C   0  0
    0.2765   -8.3959    0.0000 C   0  0
    0.9911   -8.8085    0.0000 C   0  0
    1.7073   -8.3954    0.0000 C   0  0
    1.7045   -7.5651    0.0000 C   0  0
    0.9893   -7.1560    0.0000 C   0  0
   -0.4381   -8.8076    0.0000 N   0  0
   -1.1521   -8.3947    0.0000 C   0  0
   -1.8667   -8.8065    0.0000 N   0  0
   -1.1514   -7.5699    0.0000 O   0  0
   -2.5806   -8.3931    0.0000 C   0  0
   -2.8543   -7.6140    0.0000 C   0  0
   -3.6799   -7.6297    0.0000 C   0  0
   -3.9187   -8.4203    0.0000 O   0  0
   -3.2400   -8.8905    0.0000 N   0  0
   -4.1780   -6.9722    0.0000 C   0  0
   -3.8026   -6.2378    0.0000 C   0  0
   -5.0018   -7.0141    0.0000 C   0  0
   -4.7039   -6.3268    0.0000 C   0  0
    2.4172   -7.1500    0.0000 N   0  0
    3.1330   -7.5597    0.0000 C   0  0
    3.8457   -7.1446    0.0000 C   0  0
    3.1283   -8.3810    0.0000 O   0  0
    4.5599   -7.5577    0.0000 C   0  0
    5.2722   -7.1433    0.0000 C   0  0
    5.2695   -6.3176    0.0000 C   0  0
    4.5487   -5.9082    0.0000 C   0  0
    3.8394   -6.3249    0.0000 C   0  0
 11 12  1  0
 13 14  1  0
 14 15  1  0
 15 11  2  0
  3  4  2  0
 13 16  1  0
  7  8  1  0
 16 17  1  0
 16 18  1  0
  8  9  1  0
 16 19  1  0
  4  5  1  0
  5 20  1  0
  8 10  2  0
 20 21  1  0
  2  3  1  0
 21 22  1  0
  9 11  1  0
 21 23  2  0
 12 13  2  0
 22 24  2  0
  5  6  2  0
 24 25  1  0
  6  1  1  0
 25 26  2  0
  1  2  2  0
 26 27  1  0
  2  7  1  0
 27 28  2  0
 28 22  1  0
M  END