
          11280715492D 1   1.00000     0.00000     0

 26 29  0     0  0            999 V2000
   12.7858  -22.5149    0.0000 C   0  0  0  0  0  0           0  0  0
   13.6780  -23.5117    0.0000 N   0  0  0  0  0  0           0  0  0
   14.0901  -22.7995    0.0000 C   0  0  0  0  0  0           0  0  0
   13.5289  -22.1763    0.0000 N   0  0  0  0  0  0           0  0  0
   12.8701  -23.3332    0.0000 C   0  0  0  0  0  0           0  0  0
   12.2539  -23.8817    0.0000 C   0  0  0  0  0  0           0  0  0
   11.5317  -23.4788    0.0000 C   0  0  0  0  0  0           0  0  0
   10.8239  -23.9028    0.0000 C   0  0  0  0  0  0           0  0  0
   10.8369  -24.7294    0.0000 C   0  0  0  0  0  0           0  0  0
   11.5638  -25.1303    0.0000 C   0  0  0  0  0  0           0  0  0
   12.2687  -24.7041    0.0000 C   0  0  0  0  0  0           0  0  0
   10.1292  -25.1548    0.0000 Cl  0  0  0  0  0  0           0  0  0
   11.5803  -25.9559    0.0000 O   0  0  0  0  0  0           0  0  0
   14.9157  -22.7798    0.0000 C   0  0  0  0  0  0           0  0  0
   15.3413  -23.4851    0.0000 C   0  0  0  0  0  0           0  0  0
   16.1661  -23.4659    0.0000 C   0  0  0  0  0  0           0  0  0
   16.5627  -22.7405    0.0000 C   0  0  0  0  0  0           0  0  0
   16.1285  -22.0331    0.0000 C   0  0  0  0  0  0           0  0  0
   15.3051  -22.0558    0.0000 C   0  0  0  0  0  0           0  0  0
   12.0693  -22.1075    0.0000 C   0  0  0  0  0  0           0  0  0
   10.6420  -21.2941    0.0000 N   0  0  0  0  0  0           0  0  0
   10.6484  -22.1191    0.0000 C   0  0  0  0  0  0           0  0  0
   11.3622  -22.5238    0.0000 N   0  0  0  0  0  0           0  0  0
   12.0676  -21.2829    0.0000 C   0  0  0  0  0  0           0  0  0
   11.3492  -20.8737    0.0000 C   0  0  0  0  0  0           0  0  0
    9.9365  -22.5376    0.0000 N   0  0  0  0  0  0           0  0  0
  2  3  2  0     0  0
 10 13  1  0     0  0
  6  7  2  0     0  0
  3 14  1  0     0  0
  3  4  1  0     0  0
 14 15  2  0     0  0
  7  8  1  0     0  0
 15 16  1  0     0  0
  4  1  1  0     0  0
 16 17  2  0     0  0
  8  9  2  0     0  0
 17 18  1  0     0  0
  1  5  2  0     0  0
 18 19  2  0     0  0
 19 14  1  0     0  0
  9 10  1  0     0  0
  1 20  1  0     0  0
  5  2  1  0     0  0
 10 11  2  0     0  0
 11  6  1  0     0  0
  5  6  1  0     0  0
 21 25  2  0     0  0
 21 22  1  0     0  0
 22 23  2  0     0  0
 23 20  1  0     0  0
 20 24  2  0     0  0
 24 25  1  0     0  0
  9 12  1  0     0  0
 22 26  1  0     0  0
M  END