
  SciTegic10311316242D

 19 21  0  0  0  0            999 V2000
   12.0978   -8.8494    0.0000 C   0  0
   12.0966   -9.6767    0.0000 C   0  0
   12.8115  -10.0896    0.0000 C   0  0
   13.5278   -9.6763    0.0000 C   0  0
   13.5250   -8.8458    0.0000 C   0  0
   12.8096   -8.4366    0.0000 C   0  0
   14.2379   -8.4306    0.0000 C   0  0
   14.9538   -8.8404    0.0000 C   0  0
   15.6667   -8.4252    0.0000 C   0  0
   16.5554   -7.4286    0.0000 O   0  0
   15.7491   -7.6033    0.0000 C   0  0
   16.9706   -8.1416    0.0000 C   0  0
   16.4241   -8.7580    0.0000 C   0  0
   16.8416   -9.4682    0.0000 N   0  0
   17.6460   -9.2907    0.0000 C   0  0
   17.7257   -8.4707    0.0000 C   0  0
   18.2645   -9.8382    0.0000 C   0  0
   18.0994  -10.6465    0.0000 O   0  0
   19.0471   -9.5771    0.0000 O   0  0
  1  2  2  0
  2  3  1  0
  3  4  2  0
  4  5  1  0
  5  6  2  0
  6  1  1  0
  5  7  1  0
  7  8  1  0
  8  9  1  0
  9 13  1  0
 12 10  1  0
 10 11  1  0
 11  9  2  0
 12 13  2  0
 13 14  1  0
 14 15  1  0
 15 16  2  0
 16 12  1  0
 17 18  1  0
 17 19  2  0
 15 17  1  0
M  END