
          11280714522D 1   1.00000     0.00000     0

 34 38  0     0  0            999 V2000
    3.8000   -6.6792    0.0000 C   0  0  0  0  0  0           0  0  0
    4.5042   -6.2667    0.0000 C   0  0  0  0  0  0           0  0  0
    3.0792   -6.2667    0.0000 O   0  0  0  0  0  0           0  0  0
    3.8000   -7.5042    0.0000 C   0  0  0  0  0  0           0  0  0
    2.3667   -6.6875    0.0000 C   0  0  0  0  0  0           0  0  0
    2.3667   -7.5125    0.0000 C   0  0  0  0  0  0           0  0  0
    3.0792   -7.9250    0.0000 C   0  0  0  0  0  0           0  0  0
    4.5042   -5.4417    0.0000 C   0  0  0  0  0  0           0  0  0
   -0.4833   -2.5625    0.0000 N   0  0  0  0  0  0           0  0  0
   -0.4750   -1.7417    0.0000 C   0  0  0  0  0  0           0  0  0
    1.6542   -6.2750    0.0000 C   0  0  0  0  0  0           0  0  0
    5.2250   -6.6750    0.0000 C   0  0  0  0  0  0           0  0  0
   -1.1958   -1.3292    0.0000 C   0  0  0  0  0  0           0  0  0
    4.5167   -7.9167    0.0000 C   0  0  0  0  0  0           0  0  0
    5.2292   -7.5042    0.0000 C   0  0  0  0  0  0           0  0  0
    3.0875   -8.7500    0.0000 O   0  0  0  0  0  0           0  0  0
    0.2292   -1.3292    0.0000 C   0  0  0  0  0  0           0  0  0
    3.7875   -5.0292    0.0000 O   0  0  0  0  0  0           0  0  0
    1.6542   -5.4417    0.0000 C   0  0  0  0  0  0           0  0  0
    0.2375   -2.9750    0.0000 C   0  0  0  0  0  0           0  0  0
   -1.1958   -0.5042    0.0000 C   0  0  0  0  0  0           0  0  0
    0.9500   -1.7375    0.0000 C   0  0  0  0  0  0           0  0  0
    0.2375   -0.5042    0.0000 C   0  0  0  0  0  0           0  0  0
    0.9500   -4.2042    0.0000 O   0  0  0  0  0  0           0  0  0
    0.9500   -5.0292    0.0000 C   0  0  0  0  0  0           0  0  0
    5.2167   -5.0250    0.0000 O   0  0  0  0  0  0           0  0  0
    5.9417   -7.9125    0.0000 Br  0  0  0  0  0  0           0  0  0
    0.2375   -3.8000    0.0000 C   0  0  0  0  0  0           0  0  0
    0.9542   -2.5625    0.0000 C   0  0  0  0  0  0           0  0  0
   -0.4833   -0.0917    0.0000 C   0  0  0  0  0  0           0  0  0
   -1.9083   -0.0917    0.0000 Cl  0  0  0  0  0  0           0  0  0
    0.9417   -6.6875    0.0000 C   0  0  0  0  0  0           0  0  0
    0.2292   -6.2667    0.0000 C   0  0  0  0  0  0           0  0  0
    0.2292   -5.4417    0.0000 C   0  0  0  0  0  0           0  0  0
  2  1  1  0     0  0
  3  1  1  0     0  0
  4  1  2  0     0  0
  5  3  1  0     0  0
  6  7  1  0     0  0
  7  4  1  0     0  0
  8  2  1  0     0  0
  9 20  2  0     0  0
 10  9  1  0     0  0
 11  5  1  0     0  0
 12  2  2  0     0  0
 13 10  1  0     0  0
 14  4  1  0     0  0
 15 14  2  0     0  0
 16  7  2  0     0  0
 17 22  1  0     0  0
 18  8  2  0     0  0
 19 11  1  0     0  0
 20 28  1  0     0  0
 21 13  2  0     0  0
 22 29  2  0     0  0
 23 17  1  0     0  0
 24 25  1  0     0  0
 25 19  2  0     0  0
 26  8  1  0     0  0
 27 15  1  0     0  0
 28 24  1  0     0  0
 29 20  1  0     0  0
 30 23  2  0     0  0
 31 21  1  0     0  0
 32 11  2  0     0  0
 33 32  1  0     0  0
 34 33  2  0     0  0
 15 12  1  0     0  0
  6  5  2  0     0  0
 34 25  1  0     0  0
 10 17  2  0     0  0
 21 30  1  0     0  0
M  END