
  CDK    9/16/09,9:57

 29 31  0  0  0  0  0  0  0  0999 V2000
   -3.2221  -25.0030    0.0000 C   0  0  0  0  0  0  0  0  0  0  0  0
   -3.1975  -25.8276    0.0000 C   0  0  0  0  0  0  0  0  0  0  0  0
   -2.4710  -26.2185    0.0000 N   0  0  0  0  0  0  0  0  0  0  0  0
   -1.7692  -25.7849    0.0000 C   0  0  0  0  0  0  0  0  0  0  0  0
   -1.0427  -26.1758    0.0000 N   0  0  0  0  0  0  0  0  0  0  0  0
   -1.7938  -24.9602    0.0000 N   0  0  0  0  0  0  0  0  0  0  0  0
   -0.3409  -25.7421    0.0000 C   0  0  0  0  0  0  0  0  0  0  0  0
    0.3856  -26.1331    0.0000 C   0  0  0  0  0  0  0  0  0  0  0  0
   -0.3655  -24.9175    0.0000 O   0  0  0  0  0  0  0  0  0  0  0  0
    1.0874  -25.6994    0.0000 C   0  0  0  0  0  0  0  0  0  0  0  0
    1.8139  -26.0903    0.0000 C   0  0  0  0  0  0  0  0  0  0  0  0
    1.0628  -24.8748    0.0000 C   0  0  0  0  0  0  0  0  0  0  0  0
    1.7638  -24.4452    0.0000 N   0  0  0  0  0  0  0  0  0  0  0  0
    1.7395  -23.6213    0.0000 C   0  0  0  0  0  0  0  0  0  0  0  0
    1.0124  -23.2295    0.0000 C   0  0  0  0  0  0  0  0  0  0  0  0
    0.3084  -23.6677    0.0000 C   0  0  0  0  0  0  0  0  0  0  0  0
    0.3362  -24.4901    0.0000 C   0  0  0  0  0  0  0  0  0  0  0  0
    1.8343  -26.9133    0.0000 C   0  0  0  0  0  0  0  0  0  0  0  0
    2.5600  -27.3042    0.0000 C   0  0  0  0  0  0  0  0  0  0  0  0
    3.2628  -26.8705    0.0000 C   0  0  0  0  0  0  0  0  0  0  0  0
    3.2353  -26.0417    0.0000 C   0  0  0  0  0  0  0  0  0  0  0  0
    2.5092  -25.6545    0.0000 C   0  0  0  0  0  0  0  0  0  0  0  0
   -3.9486  -24.6120    0.0000 C   0  0  0  0  0  0  0  0  0  0  0  0
   -3.9733  -23.7874    0.0000 C   0  0  0  0  0  0  0  0  0  0  0  0
   -3.5589  -22.5185    0.0000 C   0  0  0  0  0  0  0  0  0  0  0  0
   -4.3839  -22.5174    0.0000 N   0  0  0  0  0  0  0  0  0  0  0  0
   -4.6416  -23.3012    0.0000 C   0  0  0  0  0  0  0  0  0  0  0  0
   -3.3073  -23.3029    0.0000 N   0  0  0  0  0  0  0  0  0  0  0  0
    3.9898  -27.2605    0.0000 F   0  0  0  0  0  0  0  0  0  0  0  0
 14 15  2  0  0  0  0 
  7  8  1  0  0  0  0 
 15 16  1  0  0  0  0 
 16 17  2  0  0  0  0 
 17 12  1  0  0  0  0 
  7  9  2  0  0  0  0 
 11 18  2  0  0  0  0 
  4  5  1  0  0  0  0 
 18 19  1  0  0  0  0 
  8 10  1  0  0  0  0 
 19 20  2  0  0  0  0 
  2  3  1  0  0  0  0 
 20 21  1  0  0  0  0 
 10 11  1  0  0  0  0 
 21 22  2  0  0  0  0 
 22 11  1  0  0  0  0 
  4  6  2  0  0  0  0 
  1 23  1  0  0  0  0 
 10 12  1  0  0  0  0 
 23 24  1  0  0  0  0 
 25 26  1  0  0  0  0 
  1  2  1  0  0  0  0 
 12 13  2  0  0  0  0 
  5  7  1  0  0  0  0 
 13 14  1  0  0  0  0 
 26 27  1  0  0  0  0 
 27 24  2  0  0  0  0 
 24 28  1  0  0  0  0 
 28 25  2  0  0  0  0 
  3  4  1  0  0  0  0 
 20 29  1  0  0  0  0 
M  END