
  SciTegic12201612092D

 39 43  0  0  0  0            999 V2000
   -2.3155    0.7475    0.0000 C   0  0
   -2.3155   -0.7475    0.0000 C   0  0
   -1.0028   -1.5132    0.0000 C   0  0
   -1.0028    1.5132    0.0000 C   0  0
    0.2917    0.7475    0.0000 C   0  0
    0.2917   -0.7475    0.0000 C   0  0
    1.7138   -1.2033    0.0000 N   0  0
    2.5889    0.0182    0.0000 C   0  0
    1.7138    1.2033    0.0000 C   0  0
    2.1855   -2.6254    0.0000 C   0  0
    1.3877   -3.5218    0.0000 C   0  0
    3.3606   -2.8684    0.0000 O   0  0
    2.1749    2.6315    0.0000 C   0  0
    1.3751    3.8801    0.0000 C   0  0
    2.3406    5.0280    0.0000 N   0  0
    3.7308    4.4644    0.0000 N   0  0
    3.6243    2.9682    0.0000 C   0  0
    4.5369    2.1890    0.0000 C   0  0
    0.1776    3.9578    0.0000 O   0  0
    5.0039    5.2543    0.0000 C   0  0
    1.9829    6.4829    0.0000 C   0  0
    3.0653    7.5227    0.0000 C   0  0
    0.8304    6.8171    0.0000 O   0  0
    4.9656    6.4536    0.0000 O   0  0
    6.3272    4.5462    0.0000 C   0  0
    2.7069    8.9801    0.0000 C   0  0
    3.7893   10.0198    0.0000 C   0  0
    7.6026    5.3373    0.0000 C   0  0
    8.9259    4.6293    0.0000 C   0  0
   10.2017    5.4181    0.0000 C   0  0
   11.5228    4.7078    0.0000 C   0  0
   11.5682    3.2085    0.0000 C   0  0
   10.2924    2.4195    0.0000 C   0  0
    8.9713    3.1299    0.0000 C   0  0
    3.4333   11.4770    0.0000 C   0  0
    4.5171   12.5139    0.0000 C   0  0
    5.9571   12.0937    0.0000 C   0  0
    6.3132   10.6366    0.0000 C   0  0
    5.2293    9.5997    0.0000 C   0  0
  1  2  2  0
  2  3  1  0
  3  6  2  0
  5  4  2  0
  4  1  1  0
  5  6  1  0
  6  7  1  0
  7  8  1  0
  8  9  2  0
  9  5  1  0
  7 10  1  0
 10 11  1  0
 10 12  2  0
  9 13  1  0
 13 14  1  0
 14 15  1  0
 15 16  1  0
 16 17  1  0
 17 13  2  0
 17 18  1  0
 14 19  2  0
 16 20  1  0
 15 21  1  0
 21 22  1  0
 21 23  2  0
 20 24  2  0
 20 25  1  0
 22 26  1  0
 26 27  1  0
 25 28  1  0
 28 29  1  0
 29 30  2  0
 30 31  1  0
 31 32  2  0
 32 33  1  0
 33 34  2  0
 34 29  1  0
 27 35  2  0
 35 36  1  0
 36 37  2  0
 37 38  1  0
 38 39  2  0
 39 27  1  0
M  END