
  CDK    9/16/09,9:56

 35 38  0  0  0  0  0  0  0  0999 V2000
    0.1428   -1.0159    0.0000 O   0  0  0  0  0  0  0  0  0  0  0  0
    0.1393   -1.8379    0.0000 C   0  0  0  0  0  0  0  0  0  0  0  0
   -0.5955   -2.2119    0.0000 C   0  0  0  0  0  0  0  0  0  0  0  0
   -1.3283   -1.8357    0.0000 C   0  0  0  0  0  0  0  0  0  0  0  0
   -1.4574   -1.0199    0.0000 O   0  0  0  0  0  0  0  0  0  0  0  0
   -1.9127   -2.4189    0.0000 C   0  0  0  0  0  0  0  0  0  0  0  0
   -2.7282   -2.2866    0.0000 O   0  0  0  0  0  0  0  0  0  0  0  0
   -1.5385   -3.1537    0.0000 C   0  0  0  0  0  0  0  0  0  0  0  0
   -0.7278   -3.0274    0.0000 O   0  0  0  0  0  0  0  0  0  0  0  0
   -1.9149   -3.8865    0.0000 N   0  0  0  0  0  0  0  0  0  0  0  0
   -2.7307   -4.0157    0.0000 C   0  0  0  0  0  0  0  0  0  0  0  0
   -2.8630   -4.8312    0.0000 N   0  0  0  0  0  0  0  0  0  0  0  0
   -2.1252   -5.2045    0.0000 C   0  0  0  0  0  0  0  0  0  0  0  0
   -1.9137   -6.0026    0.0000 C   0  0  0  0  0  0  0  0  0  0  0  0
   -2.4981   -6.5859    0.0000 N   0  0  0  0  0  0  0  0  0  0  0  0
   -1.1177   -6.2175    0.0000 N   0  0  0  0  0  0  0  0  0  0  0  0
   -0.5333   -5.6343    0.0000 C   0  0  0  0  0  0  0  0  0  0  0  0
   -0.7458   -4.8402    0.0000 N   0  0  0  0  0  0  0  0  0  0  0  0
   -1.5418   -4.6253    0.0000 C   0  0  0  0  0  0  0  0  0  0  0  0
    0.8414   -2.2702    0.0000 N   0  0  0  0  0  0  0  0  0  0  0  0
    4.3931   -1.0202    0.0000 C   0  0  0  0  0  0  0  0  0  0  0  0
    5.1071   -0.6079    0.0000 N   0  0  0  0  0  0  0  0  0  0  0  0
    3.6749   -0.6079    0.0000 C   0  0  0  0  0  0  0  0  0  0  0  0
    4.3931   -1.8488    0.0000 O   0  0  0  0  0  0  0  0  0  0  0  0
    2.9568   -1.0202    0.0000 C   0  0  0  0  0  0  0  0  0  0  0  0
    2.2385   -0.6079    0.0000 C   0  0  0  0  0  0  0  0  0  0  0  0
    1.5232   -1.0135    0.0000 C   0  0  0  0  0  0  0  0  0  0  0  0
    1.5442   -1.8413    0.0000 C   0  0  0  0  0  0  0  0  0  0  0  0
    5.8212   -1.0202    0.0000 C   0  0  0  0  0  0  0  0  0  0  0  0
    6.5351   -0.6079    0.0000 C   0  0  0  0  0  0  0  0  0  0  0  0
    7.2479   -1.0247    0.0000 C   0  0  0  0  0  0  0  0  0  0  0  0
    7.9614   -0.6131    0.0000 C   0  0  0  0  0  0  0  0  0  0  0  0
    7.9618    0.2123    0.0000 C   0  0  0  0  0  0  0  0  0  0  0  0
    7.2428    0.6243    0.0000 C   0  0  0  0  0  0  0  0  0  0  0  0
    6.5322    0.2105    0.0000 C   0  0  0  0  0  0  0  0  0  0  0  0
 14 16  2  0  0  0  0 
 16 17  1  0  0  0  0 
 17 18  2  0  0  0  0 
 18 19  1  0  0  0  0 
 13 19  2  0  0  0  0 
 10 19  1  0  0  0  0 
  2 20  1  0  0  0  0 
  1  2  2  0  0  0  0 
  3  2  1  1  0  0  0 
 21 22  1  0  0  0  0 
  3  4  1  0  0  0  0 
 21 23  1  0  0  0  0 
  4  5  1  6  0  0  0 
 21 24  2  0  0  0  0 
  4  6  1  0  0  0  0 
 23 25  1  0  0  0  0 
  6  7  1  6  0  0  0 
 25 26  1  0  0  0  0 
  6  8  1  0  0  0  0 
 26 27  1  0  0  0  0 
  8  9  1  0  0  0  0 
 27 28  1  0  0  0  0 
 28 20  1  0  0  0  0 
  3  9  1  0  0  0  0 
 22 29  1  0  0  0  0 
  8 10  1  1  0  0  0 
 29 30  1  0  0  0  0 
 10 11  1  0  0  0  0 
 30 31  2  0  0  0  0 
 11 12  2  0  0  0  0 
 31 32  1  0  0  0  0 
 12 13  1  0  0  0  0 
 32 33  2  0  0  0  0 
 13 14  1  0  0  0  0 
 33 34  1  0  0  0  0 
 14 15  1  0  0  0  0 
 34 35  2  0  0  0  0 
 35 30  1  0  0  0  0 
M  END