
  CDK    9/16/09,9:45

 11 12  0  0  0  0  0  0  0  0999 V2000
   14.7487   -4.4091    0.0000 N   0  0  0  0  0  0  0  0  0  0  0  0
   15.5737   -4.4091    0.0000 C   0  0  0  0  0  0  0  0  0  0  0  0
   15.8287   -3.6245    0.0000 C   0  0  0  0  0  0  0  0  0  0  0  0
   16.0607   -5.0783    0.0000 C   0  0  0  0  0  0  0  0  0  0  0  0
   15.7251   -5.8320    0.0000 O   0  0  0  0  0  0  0  0  0  0  0  0
   16.8811   -4.9922    0.0000 O   0  0  0  0  0  0  0  0  0  0  0  0
   14.4939   -3.6245    0.0000 C   0  0  0  0  0  0  0  0  0  0  0  0
   15.1586   -3.1358    0.0000 C   0  0  0  0  0  0  0  0  0  0  0  0
   14.8992   -2.3527    0.0000 S   0  0  0  0  0  0  0  0  0  0  0  0
   14.0742   -2.3572    0.0000 C   0  0  0  0  0  0  0  0  0  0  0  0
   13.8238   -3.1433    0.0000 C   0  0  0  0  0  0  0  0  0  0  0  0
  4  5  1  0  0  0  0 
  4  6  2  0  0  0  0 
  2  4  1  0  0  0  0 
  7  8  2  0  0  0  0 
  3  8  1  0  0  0  0 
  7  1  1  0  0  0  0 
  1  2  1  0  0  0  0 
  2  3  2  0  0  0  0 
  8  9  1  0  0  0  0 
  9 10  1  0  0  0  0 
 10 11  2  0  0  0  0 
 11  7  1  0  0  0  0 
M  END