
          11280715432D 1   1.00000     0.00000     0

 32 36  0     1  0            999 V2000
    0.2417   -2.2792    0.0000 N   0  0  3  0  0  0           0  0  0
    5.2750   -0.7542    0.0000 N   0  0  3  0  0  0           0  0  0
    1.6792   -2.2792    0.0000 C   0  0  1  0  0  0           0  0  0
    0.2500   -1.4542    0.0000 C   0  0  0  0  0  0           0  0  0
    4.6042   -1.2375    0.0000 C   0  0  3  0  0  0           0  0  0
    3.8167   -1.8500    0.0000 N   0  0  3  0  0  0           0  0  0
    0.9625   -2.6792    0.0000 C   0  0  0  0  0  0           0  0  0
    1.6792   -3.1042    0.0000 C   0  0  0  0  0  0           0  0  0
   -0.4708   -2.7000    0.0000 C   0  0  0  0  0  0           0  0  0
    4.5375   -2.2542    0.0000 C   0  0  0  0  0  0           0  0  0
    3.8125   -1.0250    0.0000 C   0  0  0  0  0  0           0  0  0
    2.4000   -4.3417    0.0000 C   0  0  0  0  0  0           0  0  0
    2.4000   -3.5167    0.0000 C   0  0  0  0  0  0           0  0  0
   -0.4708   -3.5250    0.0000 C   0  0  3  0  0  0           0  0  0
   -0.8958   -4.2292    0.0000 C   0  0  0  0  0  0           0  0  0
   -0.0708   -4.2417    0.0000 C   0  0  0  0  0  0           0  0  0
    1.6792   -4.7542    0.0000 C   0  0  0  0  0  0           0  0  0
    5.1917    0.0583    0.0000 C   0  0  0  0  0  0           0  0  0
    6.0292   -1.1000    0.0000 C   0  0  0  0  0  0           0  0  0
    1.6792   -1.4542    0.0000 C   0  0  0  0  0  0           0  0  0
    0.9625   -1.0417    0.0000 C   0  0  0  0  0  0           0  0  0
   -0.4708   -1.0417    0.0000 O   0  0  0  0  0  0           0  0  0
    2.3917   -1.8625    0.0000 C   0  0  0  0  0  0           0  0  0
    0.9667   -3.5167    0.0000 C   0  0  0  0  0  0           0  0  0
    0.9667   -4.3417    0.0000 C   0  0  0  0  0  0           0  0  0
    3.1042   -2.2667    0.0000 C   0  0  0  0  0  0           0  0  0
    6.6917   -0.6250    0.0000 C   0  0  0  0  0  0           0  0  0
    5.8667    0.5458    0.0000 C   0  0  0  0  0  0           0  0  0
    6.6167    0.1958    0.0000 C   0  0  3  0  0  0           0  0  0
    3.1167   -4.7542    0.0000 Cl  0  0  0  0  0  0           0  0  0
    1.6792   -5.5792    0.0000 Cl  0  0  0  0  0  0           0  0  0
    7.2917    0.6750    0.0000 F   0  0  0  0  0  0           0  0  0
  2  5  1  0     0  0
  3  7  1  0     0  0
  4  1  1  0     0  0
  5 11  1  0     0  0
  6 26  1  0     0  0
  7  1  1  0     0  0
  3  8  1  6     0  0
  9  1  1  0     0  0
 10  6  1  0     0  0
 11  6  1  0     0  0
 12 13  1  0     0  0
 13  8  2  0     0  0
 14  9  1  0     0  0
 15 14  1  0     0  0
 16 14  1  0     0  0
 17 25  1  0     0  0
 18  2  1  0     0  0
 19  2  1  0     0  0
 20  3  1  0     0  0
 21  4  1  0     0  0
 22  4  2  0     0  0
  3 23  1  1     0  0
 24  8  1  0     0  0
 25 24  2  0     0  0
 26 23  1  0     0  0
 27 19  1  0     0  0
 28 18  1  0     0  0
 29 27  1  0     0  0
 30 12  1  0     0  0
 31 17  1  0     0  0
 32 29  1  0     0  0
 21 20  1  0     0  0
 16 15  1  0     0  0
 10  5  1  0     0  0
 17 12  2  0     0  0
 28 29  1  0     0  0
M  END