
  SciTegic10011413212D

 26 29  0  0  0  0            999 V2000
    4.6231  -27.3805    0.0000 N   0  0
    5.7292  -26.6308    0.0000 C   0  0
    4.9053  -26.6065    0.0000 C   0  0
    5.9584  -27.4260    0.0000 N   0  0
    5.2738  -27.8886    0.0000 C   0  0
    5.3319  -28.7082    0.0000 S   0  0
    6.0732  -29.0715    0.0000 C   0  0
    6.7578  -28.6089    0.0000 C   0  0
    6.7010  -27.7830    0.0000 C   0  0
    6.2348  -25.9789    0.0000 O   0  0
    4.4906  -25.8933    0.0000 C   0  0
    3.6656  -25.8958    0.0000 C   0  0
    3.2548  -25.1781    0.0000 C   0  0
    2.4306  -25.1802    0.0000 C   0  0
    2.0194  -25.8964    0.0000 C   0  0
    2.4383  -26.6121    0.0000 C   0  0
    3.2612  -26.6064    0.0000 C   0  0
    2.0163  -24.4667    0.0000 O   0  0
    2.4270  -23.7512    0.0000 C   0  0
    2.0128  -23.0378    0.0000 C   0  0
    2.4247  -22.3262    0.0000 C   0  0
    2.0112  -21.6133    0.0000 C   0  0
    1.1852  -21.6148    0.0000 C   0  0
    0.7748  -22.3353    0.0000 C   0  0
    1.1906  -23.0454    0.0000 C   0  0
    0.7701  -20.9019    0.0000 Cl  0  0
  1  5  2  0
  4  2  1  0
  2  3  1  0
  3  1  1  0
  4  5  1  0
  4  9  1  0
  5  6  1  0
  6  7  1  0
  7  8  1  0
  8  9  1  0
  2 10  2  0
  3 11  2  0
 11 12  1  0
 12 13  2  0
 13 14  1  0
 14 15  2  0
 15 16  1  0
 16 17  2  0
 17 12  1  0
 14 18  1  0
 18 19  1  0
 19 20  1  0
 20 21  2  0
 21 22  1  0
 22 23  2  0
 23 24  1  0
 24 25  2  0
 25 20  1  0
 23 26  1  0
M  END