
  SciTegic05061116452D

 33 37  0  0  0  0            999 V2000
   -1.0940  -22.9960    0.0000 N   0  0
   -0.3823  -22.5873    0.0000 C   0  0
   -0.3823  -21.7623    0.0000 N   0  0
   -1.0940  -21.3459    0.0000 C   0  0
   -1.8057  -22.5873    0.0000 C   0  0
   -1.8057  -21.7577    0.0000 C   0  0
   -2.5947  -21.5013    0.0000 N   0  0
   -3.0824  -22.1725    0.0000 C   0  0
   -2.5948  -22.8436    0.0000 N   0  0
   -2.8497  -23.6283    0.0000 C   0  0
   -3.6567  -23.7998    0.0000 C   0  0
   -3.9117  -24.5844    0.0000 O   0  0
   -4.2088  -23.1867    0.0000 O   0  0
   -1.0920  -20.5208    0.0000 N   0  0
    0.3318  -23.0007    0.0000 N   0  0
    1.0467  -22.5891    0.0000 C   0  0
    1.7607  -23.0025    0.0000 C   0  0
    1.7552  -23.8258    0.0000 C   0  0
    2.4683  -24.2391    0.0000 C   0  0
    3.1843  -23.8274    0.0000 C   0  0
    3.1826  -22.9981    0.0000 C   0  0
    2.4689  -22.5885    0.0000 C   0  0
    3.8950  -24.2370    0.0000 C   0  0
    3.8931  -25.0630    0.0000 C   0  0
    4.6036  -25.4754    0.0000 C   0  0
    5.3205  -25.0663    0.0000 C   0  0
    5.3223  -24.2402    0.0000 C   0  0
    4.6074  -23.8234    0.0000 C   0  0
   -0.3761  -20.1089    0.0000 C   0  0
   -0.3722  -19.2875    0.0000 C   0  0
   -1.0838  -18.8694    0.0000 O   0  0
   -1.8011  -19.2790    0.0000 C   0  0
   -1.8068  -20.1066    0.0000 C   0  0
 15 16  1  0
  6  7  1  0
 16 17  1  0
  7  8  2  0
 17 18  2  0
  8  9  1  0
 18 19  1  0
  9  5  1  0
 19 20  2  0
  3  4  2  0
 20 21  1  0
  9 10  1  0
 21 22  2  0
 22 17  1  0
 23 24  1  0
  5  6  2  0
 10 11  1  0
 11 12  1  0
  6  4  1  0
 11 13  2  0
 23 28  1  0
 24 25  1  0
 25 26  1  0
 26 27  1  0
 27 28  1  0
 20 23  1  0
 14 29  1  0
  5  1  1  0
  4 14  1  0
  1  2  2  0
  2 15  1  0
  2  3  1  0
 14 33  1  0
 29 30  1  0
 30 31  1  0
 31 32  1  0
 32 33  1  0
M  END