
  SciTegic01181116592D

 38 41  0  0  0  0            999 V2000
   10.1742  -21.3017    0.0000 C   0  0
   10.1742  -22.1311    0.0000 C   0  0
   10.8886  -22.5436    0.0000 C   0  0
   10.8886  -20.8846    0.0000 C   0  0
   11.6076  -21.3017    0.0000 C   0  0
   11.6087  -22.1311    0.0000 C   0  0
   12.3236  -22.5427    0.0000 C   0  0
   13.0421  -22.1293    0.0000 C   0  0
   13.0410  -21.2998    0.0000 C   0  0
   12.3214  -20.8837    0.0000 C   0  0
   13.7562  -20.8897    0.0000 C   0  0
   14.4705  -21.3042    0.0000 C   0  0
   14.4723  -19.6553    0.0000 C   0  0
   13.7540  -20.0661    0.0000 C   0  0
   15.1867  -20.0698    0.0000 C   0  0
   15.1788  -20.8983    0.0000 C   0  0
   15.8883  -21.3171    0.0000 C   0  0
   16.6104  -20.9121    0.0000 C   0  0
   16.6183  -20.0835    0.0000 C   0  0
   15.9043  -19.6600    0.0000 C   0  0
   13.7564  -22.5418    0.0000 C   0  0
    9.4588  -20.8908    0.0000 O   0  0
    9.4598  -22.5436    0.0000 O   0  0
   12.3192  -20.0588    0.0000 O   0  0
   12.3235  -23.3676    0.0000 O   0  0
   13.0398  -19.6531    0.0000 C   0  0
   14.4749  -18.8304    0.0000 O   0  0
   14.4683  -22.1291    0.0000 O   0  0
   17.3371  -19.6786    0.0000 O   0  0
   17.3203  -21.3323    0.0000 O   0  0
   10.8871  -23.3685    0.0000 C   0  0
   10.1721  -23.7798    0.0000 C   0  0
   10.1707  -24.6047    0.0000 C   0  0
    9.4584  -23.3661    0.0000 C   0  0
   15.9110  -18.8351    0.0000 C   0  0
   16.6288  -18.4286    0.0000 C   0  0
   16.6356  -17.6036    0.0000 C   0  0
   17.3398  -18.8469    0.0000 C   0  0
  7  8  1  0
 15 20  2  0
 16 17  2  0
 17 18  1  0
 18 19  2  0
 19 20  1  0
  8  9  2  0
  8 21  1  0
  9 10  1  0
  1 22  1  0
 11 12  1  0
  2 23  1  0
  5  6  2  0
 10 24  2  0
  7 25  2  0
  1  2  1  0
 14 26  1  0
  1  4  2  0
 13 27  2  0
 11 14  2  0
 12 28  2  0
 12 16  1  0
 19 29  1  0
 15 13  1  0
 18 30  1  0
 13 14  1  0
  3 31  1  0
  9 11  1  0
 31 32  1  0
 15 16  1  0
 32 33  1  0
  2  3  2  0
 32 34  1  0
  3  6  1  0
 20 35  1  0
  5  4  1  0
 35 36  1  0
  5 10  1  0
 36 37  1  0
  6  7  1  0
 36 38  1  0
M  END