
  SciTegic06011109532D

 56 60  0  0  0  0            999 V2000
    6.5887   -2.5135    0.0000 C   0  0
    7.3053   -2.1046    0.0000 N   0  0
    6.5845   -3.3384    0.0000 O   0  0
    8.0176   -2.5207    0.0000 C   0  0
    8.7342   -2.1119    0.0000 C   0  0
    8.7367   -1.2862    0.0000 C   0  0
    9.4524   -0.8774    0.0000 C   0  0
   10.1658   -1.2936    0.0000 C   0  0
   10.1589   -2.1228    0.0000 C   0  0
    9.4426   -2.5279    0.0000 C   0  0
   -3.4098   -2.5458    0.0000 C   0  0
   -3.4109   -3.3732    0.0000 C   0  0
   -2.6961   -3.7860    0.0000 C   0  0
   -1.9797   -3.3727    0.0000 C   0  0
   -1.9825   -2.5422    0.0000 C   0  0
   -2.6979   -2.1330    0.0000 C   0  0
   -4.1254   -3.7872    0.0000 C   0  0
   -4.8402   -4.1991    0.0000 N   0  0
   -1.2696   -2.1270    0.0000 C   0  0
   -0.5536   -2.5368    0.0000 N   0  0
   -1.2727   -1.3020    0.0000 O   0  0
    0.1593   -2.1216    0.0000 C   0  0  2  0  0  0
    0.8753   -2.5314    0.0000 C   0  0
    1.5883   -2.1162    0.0000 N   0  0
    0.8784   -3.3564    0.0000 O   0  0
    0.1562   -1.2966    0.0000 C   0  0
   -0.2625   -0.5792    0.0000 C   0  0
    0.1524    0.1417    0.0000 C   0  0
   -0.2656    0.8587    0.0000 C   0  0
   -1.0972    0.8552    0.0000 C   0  0
   -1.5089    0.1288    0.0000 C   0  0
   -1.0885   -0.5852    0.0000 C   0  0
   -1.5139    1.5672    0.0000 O   0  0
    2.3043   -2.5260    0.0000 C   0  0  2  0  0  0
    3.0172   -2.1108    0.0000 C   0  0
    2.3074   -3.3510    0.0000 C   0  0
    3.0234   -3.7608    0.0000 C   0  0
    3.0265   -4.5858    0.0000 C   0  0
    3.7363   -3.3456    0.0000 C   0  0
    3.7332   -2.5206    0.0000 N   0  0
    3.0141   -1.2858    0.0000 O   0  0
    4.4461   -2.1054    0.0000 C   0  0
    5.1605   -2.5178    0.0000 C   0  0
    5.8729   -2.1033    0.0000 C   0  0
    5.8702   -1.2774    0.0000 C   0  0
    5.1492   -0.8678    0.0000 C   0  0
    4.4397   -1.2847    0.0000 C   0  0
    5.1436   -0.0459    0.0000 C   0  0
    5.8567    0.3712    0.0000 C   0  0
    5.8510    1.1954    0.0000 C   0  0
    5.1330    1.6035    0.0000 C   0  0
    4.4192    1.1813    0.0000 C   0  0
    4.4284    0.3585    0.0000 C   0  0
    5.1259    2.4284    0.0000 C   0  0
    5.8368    2.8471    0.0000 N   0  0
    4.4079    2.8348    0.0000 O   0  0
 27 28  2  0
  2  4  1  0
 28 29  1  0
 14 15  1  0
 29 30  2  0
  7  8  2  0
 30 31  1  0
 15 16  2  0
 31 32  2  0
 32 27  1  0
 16 11  1  0
 30 33  1  0
 24 34  1  0
  8  9  1  0
 34 35  1  0
 17 18  3  0
 34 36  1  6
 12 17  1  0
 36 37  1  0
  4  5  1  0
 37 38  1  0
 15 19  1  0
 37 39  1  0
  9 10  2  0
 35 40  1  0
 19 20  1  0
 35 41  2  0
 10  5  1  0
 40 42  1  0
 19 21  2  0
 42 43  2  0
  1  3  2  0
 43 44  1  0
 20 22  1  0
 44 45  2  0
  5  6  2  0
 45 46  1  0
 22 23  1  0
 46 47  2  0
 47 42  1  0
 11 12  2  0
 23 24  1  0
 48 49  2  0
  1  2  1  0
 49 50  1  0
 23 25  2  0
 50 51  2  0
 12 13  1  0
 51 52  1  0
 22 26  1  1
 52 53  2  0
 53 48  1  0
 46 48  1  0
  6  7  1  0
 51 54  1  0
 26 27  1  0
 54 55  1  0
 13 14  2  0
 54 56  2  0
 44  1  1  0
M  END