
  SciTegic09261414532D

 36 39  0  0  0  0            999 V2000
    7.0885  -13.1551    0.0000 C   0  0
    7.0893  -13.9819    0.0000 C   0  0
    7.8046  -14.3928    0.0000 N   0  0
    8.5197  -13.9781    0.0000 C   0  0
    8.5148  -13.1481    0.0000 C   0  0
    7.7989  -12.7409    0.0000 C   0  0
    9.2358  -14.3879    0.0000 C   0  0
    9.2268  -12.7313    0.0000 C   0  0  1  0  0  0
    9.9438  -13.1394    0.0000 C   0  0
   10.6558  -12.7226    0.0000 O   0  0
    9.9489  -13.9644    0.0000 O   0  0
    9.2219  -11.9062    0.0000 O   0  0
    9.9338  -11.4894    0.0000 C   0  0
    9.9288  -10.6643    0.0000 C   0  0
   10.6508  -11.8976    0.0000 C   0  0
   10.6462  -11.0711    0.0000 C   0  0
    7.7946  -11.9158    0.0000 C   0  0
    8.5080  -11.5053    0.0000 C   0  0
    7.0796  -11.5151    0.0000 C   0  0
    7.0721  -10.6922    0.0000 C   0  0
    6.3754  -14.3955    0.0000 C   0  0
    6.3730  -12.7444    0.0000 C   0  0
    5.6639  -13.9827    0.0000 C   0  0
    4.9505  -14.3956    0.0000 C   0  0
    4.9513  -15.2215    0.0000 C   0  0
    5.6714  -15.6327    0.0000 C   0  0
    6.3819  -15.2175    0.0000 C   0  0
    4.2355  -13.9838    0.0000 C   0  0
    4.2379  -15.6360    0.0000 C   0  0
    7.7922  -10.2724    0.0000 C   0  0
    8.5005  -10.6836    0.0000 C   0  0
    9.2069  -10.2782    0.0000 N   0  0
    9.2112   -9.4597    0.0000 C   0  0
    8.5028   -9.0485    0.0000 C   0  0
    7.7903   -9.4557    0.0000 O   0  0
    8.5002  -12.3296    0.0000 Cl  0  0
  1  2  2  0
  2  3  1  0
  3  4  2  0
  4  5  1  0
  5  6  2  0
  6  1  1  0
  4  7  1  0
  5  8  1  0
  8  9  1  0
  9 10  1  0
  9 11  2  0
  8 12  1  6
 12 13  1  0
 13 14  1  0
 13 15  1  0
 13 16  1  0
  6 17  1  0
 17 18  2  0
 18 31  1  0
 20 19  2  0
 19 17  1  0
 20 30  1  0
  2 21  1  0
  1 22  1  0
 21 23  2  0
 23 24  1  0
 24 25  2  0
 25 26  1  0
 26 27  2  0
 27 21  1  0
 24 28  1  0
 25 29  1  0
 30 31  2  0
 30 35  1  0
 31 32  1  0
 32 33  1  0
 33 34  1  0
 34 35  1  0
 18 36  1  0
M  END