
  CDK    9/16/09,9:59

 36 40  0  0  0  0  0  0  0  0999 V2000
    0.6794   -8.9508    0.0000 C   0  0  0  0  0  0  0  0  0  0  0  0
    0.2627   -9.6611    0.0000 C   0  0  0  0  0  0  0  0  0  0  0  0
    0.6694  -10.3751    0.0000 C   0  0  0  0  0  0  0  0  0  0  0  0
    1.4928  -10.3799    0.0000 C   0  0  0  0  0  0  0  0  0  0  0  0
    1.9077   -9.6648    0.0000 C   0  0  0  0  0  0  0  0  0  0  0  0
    1.4986   -8.9538    0.0000 C   0  0  0  0  0  0  0  0  0  0  0  0
    0.2708   -8.2341    0.0000 N   0  0  0  0  0  0  0  0  0  0  0  0
    0.6871   -7.5218    0.0000 C   0  0  0  0  0  0  0  0  0  0  0  0
    0.2784   -6.8052    0.0000 C   0  0  0  0  0  0  0  0  0  0  0  0
    1.5120   -7.5262    0.0000 O   0  0  0  0  0  0  0  0  0  0  0  0
    0.6964   -6.0938    0.0000 C   0  0  0  0  0  0  0  0  0  0  0  0
    0.2884   -5.3777    0.0000 C   0  0  0  0  0  0  0  0  0  0  0  0
   -0.5375   -5.3728    0.0000 C   0  0  0  0  0  0  0  0  0  0  0  0
   -0.9536   -6.0901    0.0000 C   0  0  0  0  0  0  0  0  0  0  0  0
   -0.5432   -6.8034    0.0000 C   0  0  0  0  0  0  0  0  0  0  0  0
    0.7050   -4.6656    0.0000 O   0  0  0  0  0  0  0  0  0  0  0  0
    1.5300   -4.6704    0.0000 C   0  0  0  0  0  0  0  0  0  0  0  0
   -0.9471   -4.6567    0.0000 O   0  0  0  0  0  0  0  0  0  0  0  0
   -0.5318   -3.9439    0.0000 C   0  0  0  0  0  0  0  0  0  0  0  0
   -1.7786   -6.0886    0.0000 O   0  0  0  0  0  0  0  0  0  0  0  0
   -2.1898   -5.3734    0.0000 C   0  0  0  0  0  0  0  0  0  0  0  0
   -0.5636   -9.6572    0.0000 C   0  0  0  0  0  0  0  0  0  0  0  0
   -1.0443   -8.9867    0.0000 N   0  0  0  0  0  0  0  0  0  0  0  0
   -1.0528  -10.3215    0.0000 C   0  0  0  0  0  0  0  0  0  0  0  0
   -1.8358  -10.0617    0.0000 N   0  0  0  0  0  0  0  0  0  0  0  0
   -1.8342   -9.2351    0.0000 C   0  0  0  0  0  0  0  0  0  0  0  0
   -2.6198   -8.9781    0.0000 S   0  0  0  0  0  0  0  0  0  0  0  0
   -3.1070   -9.6459    0.0000 C   0  0  0  0  0  0  0  0  0  0  0  0
   -2.6224  -10.3155    0.0000 C   0  0  0  0  0  0  0  0  0  0  0  0
   -2.8789  -11.0996    0.0000 C   0  0  0  0  0  0  0  0  0  0  0  0
   -3.6862  -11.2696    0.0000 N   0  0  0  0  0  0  0  0  0  0  0  0
   -4.2365  -10.6578    0.0000 C   0  0  0  0  0  0  0  0  0  0  0  0
   -5.0407  -10.8251    0.0000 C   0  0  0  0  0  0  0  0  0  0  0  0
   -5.3013  -11.6082    0.0000 N   0  0  0  0  0  0  0  0  0  0  0  0
   -4.7513  -12.2244    0.0000 C   0  0  0  0  0  0  0  0  0  0  0  0
   -3.9407  -12.0575    0.0000 C   0  0  0  0  0  0  0  0  0  0  0  0
 13 18  1  0  0  0  0 
  8  9  1  0  0  0  0 
 18 19  1  0  0  0  0 
  4  5  1  0  0  0  0 
 14 20  1  0  0  0  0 
  8 10  2  0  0  0  0 
 20 21  1  0  0  0  0 
 22 23  1  0  0  0  0 
  2  3  1  0  0  0  0 
  9 11  2  0  0  0  0 
  5  6  2  0  0  0  0 
 23 26  2  0  0  0  0 
 25 24  1  0  0  0  0 
 24 22  2  0  0  0  0 
  2 22  1  0  0  0  0 
 25 26  1  0  0  0  0 
 11 12  1  0  0  0  0 
  6  1  1  0  0  0  0 
 12 13  2  0  0  0  0 
  1  2  2  0  0  0  0 
 13 14  1  0  0  0  0 
 26 27  1  0  0  0  0 
 27 28  1  0  0  0  0 
 28 29  2  0  0  0  0 
 29 25  1  0  0  0  0 
  1  7  1  0  0  0  0 
 29 30  1  0  0  0  0 
 14 15  2  0  0  0  0 
 30 31  1  0  0  0  0 
 31 32  1  0  0  0  0 
 15  9  1  0  0  0  0 
  3  4  2  0  0  0  0 
 12 16  1  0  0  0  0 
  7  8  1  0  0  0  0 
 16 17  1  0  0  0  0 
 31 36  1  0  0  0  0 
 32 33  1  0  0  0  0 
 33 34  1  0  0  0  0 
 34 35  1  0  0  0  0 
 35 36  1  0  0  0  0 
M  END