
  SciTegic07101214422D

 23 25  0  0  0  0            999 V2000
   14.2819  -12.6958    0.0000 C   0  0
   14.2807  -13.5232    0.0000 C   0  0
   14.9956  -13.9360    0.0000 N   0  0
   15.7120  -13.5227    0.0000 C   0  0
   15.7091  -12.6922    0.0000 N   0  0
   14.9938  -12.2830    0.0000 N   0  0
   16.4271  -13.9341    0.0000 N   0  0
   13.5673  -12.2835    0.0000 C   0  0
   13.5659  -13.9351    0.0000 C   0  0
   13.5706  -11.4575    0.0000 C   0  0
   12.8568  -11.0453    0.0000 C   0  0
   12.1415  -11.4580    0.0000 N   0  0
   12.1443  -12.2873    0.0000 C   0  0
   12.8587  -12.6958    0.0000 C   0  0
   12.8534  -13.5206    0.0000 C   0  0
   12.1391  -13.9318    0.0000 C   0  0
   12.1380  -14.7577    0.0000 C   0  0
   12.8572  -15.1706    0.0000 C   0  0
   13.5686  -14.7570    0.0000 C   0  0
   12.8571  -10.2203    0.0000 C   0  0
   11.4314  -12.7025    0.0000 C   0  0
   11.4252  -13.5184    0.0000 F   0  0
   12.8594  -15.9956    0.0000 F   0  0
  5  6  2  0
 11 12  2  0
  6  1  1  0
 12 13  1  0
  1  2  2  0
 13 14  2  0
 14  8  1  0
  4  7  1  0
  9 15  2  0
  3  4  2  0
 15 16  1  0
  1  8  1  0
 16 17  2  0
 17 18  1  0
  2  9  1  0
 18 19  2  0
 19  9  1  0
  4  5  1  0
 11 20  1  0
  8 10  2  0
 13 21  1  0
  2  3  1  0
 16 22  1  0
 10 11  1  0
 18 23  1  0
M  END