
          11280715092D 1   1.00000     0.00000     0

 36 38  0     0  0            999 V2000
    1.6292    0.3833    0.0000 C   0  0  3  0  0  0           0  0  0
    0.4667   -0.4917    0.0000 O   0  0  0  0  0  0           0  0  0
    0.9875    0.1583    0.0000 C   0  0  3  0  0  0           0  0  0
    1.0042    0.7583    0.0000 C   0  0  3  0  0  0           0  0  0
    1.6292    0.9750    0.0000 C   0  0  3  0  0  0           0  0  0
    2.0292   -0.0417    0.0000 C   0  0  0  0  0  0           0  0  0
    2.8542   -0.6917    0.0000 C   0  0  0  0  0  0           0  0  0
    4.1667   -1.5792    0.0000 C   0  0  0  0  0  0           0  0  0
    2.7000   -0.1167    0.0000 N   0  0  0  0  0  0           0  0  0
    4.5375   -4.9000    0.0000 C   0  0  3  0  0  0           0  0  0
    4.3792   -4.3167    0.0000 C   0  0  0  0  0  0           0  0  0
    5.3250    0.8583    0.0000 C   0  0  0  0  0  0           0  0  0
    3.5917   -1.4292    0.0000 N   0  0  0  0  0  0           0  0  0
    0.3417    0.4708    0.0000 C   0  0  0  0  0  0           0  0  0
    0.3417    1.0333    0.0000 C   0  0  0  0  0  0           0  0  0
    3.9042   -2.5875    0.0000 S   0  0  0  0  0  0           0  0  0
    4.5917   -1.1542    0.0000 O   0  0  0  0  0  0           0  0  0
    2.4292   -1.1250    0.0000 O   0  0  0  0  0  0           0  0  0
    5.3292    0.2583    0.0000 O   0  0  0  0  0  0           0  0  0
    2.7167    1.1333    0.0000 C   0  0  0  0  0  0           0  0  0
    4.8042   -3.8917    0.0000 C   0  0  0  0  0  0           0  0  0
    3.8000   -4.1667    0.0000 C   0  0  0  0  0  0           0  0  0
    3.2417    0.8375    0.0000 C   0  0  0  0  0  0           0  0  0
    3.4292   -0.8500    0.0000 C   0  0  0  0  0  0           0  0  0
    4.3292   -2.1625    0.0000 C   0  0  0  0  0  0           0  0  0
    4.0625   -3.1667    0.0000 C   0  0  0  0  0  0           0  0  0
    5.8417    1.1583    0.0000 O   0  0  0  0  0  0           0  0  0
    4.6417   -3.3167    0.0000 C   0  0  0  0  0  0           0  0  0
    3.6417   -3.5917    0.0000 C   0  0  0  0  0  0           0  0  0
    2.2042    0.8250    0.0000 C   0  0  0  0  0  0           0  0  0
    4.8000    1.1500    0.0000 C   0  0  0  0  0  0           0  0  0
    4.1125   -5.3292    0.0000 C   0  0  0  0  0  0           0  0  0
    5.1167   -5.0542    0.0000 C   0  0  0  0  0  0           0  0  0
    4.6917   -5.4792    0.0000 C   0  0  0  0  0  0           0  0  0
    3.7625    1.1458    0.0000 C   0  0  0  0  0  0           0  0  0
    4.2792    0.8458    0.0000 C   0  0  0  0  0  0           0  0  0
  2  3  1  0     0  0
  3  1  1  0     0  0
  4  5  1  0     0  0
  5  1  1  0     0  0
  6  1  1  0     0  0
  7  9  1  0     0  0
  8 13  1  0     0  0
  9  6  1  0     0  0
 10 11  1  0     0  0
 11 22  2  0     0  0
 12 31  1  0     0  0
 13 24  1  0     0  0
 14  3  1  0     0  0
 15  4  1  0     0  0
 16 25  1  0     0  0
 17  8  2  0     0  0
 18  7  2  0     0  0
 19 12  2  0     0  0
 20 30  1  0     0  0
 21 28  2  0     0  0
 22 29  1  0     0  0
 23 20  2  0     0  0
 24  7  1  0     0  0
 25  8  1  0     0  0
 26 16  1  0     0  0
 27 12  1  0     0  0
 28 26  1  0     0  0
 29 26  2  0     0  0
 30  5  1  0     0  0
 31 36  1  0     0  0
 32 10  1  0     0  0
 33 10  1  0     0  0
 34 10  1  0     0  0
 35 23  1  0     0  0
 36 35  1  0     0  0
  4  2  1  0     0  0
 15 14  1  0     0  0
 21 11  1  0     0  0
M  END