
  Mrv0541 04051115152D          

 14 15  0  0  0  0            999 V2000
   -0.2319   -1.7549    0.0000 O   0  0  0  0  0  0  0  0  0  0  0  0
    1.1971   -1.7549    0.0000 O   0  0  0  0  0  0  0  0  0  0  0  0
    0.4826    1.9576    0.0000 O   0  0  0  0  0  0  0  0  0  0  0  0
   -1.6608   -0.1049    0.0000 C   0  0  0  0  0  0  0  0  0  0  0  0
   -1.6608    0.7201    0.0000 C   0  0  0  0  0  0  0  0  0  0  0  0
    1.1971    0.7201    0.0000 C   0  0  0  0  0  0  0  0  0  0  0  0
    1.1971   -0.1049    0.0000 C   0  0  0  0  0  0  0  0  0  0  0  0
   -0.9463   -0.5174    0.0000 C   0  0  0  0  0  0  0  0  0  0  0  0
   -0.9463    1.1326    0.0000 N   0  0  0  0  0  0  0  0  0  0  0  0
    0.4826   -1.3424    0.0000 C   0  0  0  0  0  0  0  0  0  0  0  0
    0.4826    1.1326    0.0000 C   0  0  0  0  0  0  0  0  0  0  0  0
    0.4826   -0.5174    0.0000 C   0  0  0  0  0  0  0  0  0  0  0  0
   -0.2319   -0.1049    0.0000 C   0  0  0  0  0  0  0  0  0  0  0  0
   -0.2319    0.7201    0.0000 C   0  0  0  0  0  0  0  0  0  0  0  0
 10  1  1  0  0  0  0
 10  2  2  0  0  0  0
 11  3  1  0  0  0  0
  4  5  2  0  0  0  0
  4  8  1  0  0  0  0
  5  9  1  0  0  0  0
  6  7  1  0  0  0  0
  6 11  2  0  0  0  0
  7 12  2  0  0  0  0
  8 13  2  0  0  0  0
 14  9  2  0  0  0  0
 10 12  1  0  0  0  0
 11 14  1  0  0  0  0
 12 13  1  0  0  0  0
 13 14  1  0  0  0  0
M  END