
          11280715112D 1   1.00000     0.00000     0

 29 32  0     0  0            999 V2000
    0.0000   -1.9500    0.0000 C   0  0  0  0  0  0           0  0  0
   -0.6500   -2.4542    0.0000 C   0  0  0  0  0  0           0  0  0
    5.0917   -0.5125    0.0000 C   0  0  0  0  0  0           0  0  0
    2.9417   -1.7375    0.0000 N   0  0  3  0  0  0           0  0  0
    5.8042   -0.9292    0.0000 C   0  0  0  0  0  0           0  0  0
    4.3792   -0.9167    0.0000 C   0  0  3  0  0  0           0  0  0
    0.0000   -1.1292    0.0000 O   0  0  0  0  0  0           0  0  0
    0.8000   -2.1417    0.0000 C   0  0  3  0  0  0           0  0  0
   -0.6583   -3.2875    0.0000 C   0  0  0  0  0  0           0  0  0
    5.1000    0.3125    0.0000 O   0  0  0  0  0  0           0  0  0
    1.5167   -1.7292    0.0000 C   0  0  0  0  0  0           0  0  0
    5.7917   -1.7542    0.0000 C   0  0  0  0  0  0           0  0  0
    6.5167   -0.5250    0.0000 C   0  0  0  0  0  0           0  0  0
    3.6667   -0.5042    0.0000 C   0  0  0  0  0  0           0  0  0
    4.3667   -1.7417    0.0000 C   0  0  0  0  0  0           0  0  0
    2.2292   -2.1417    0.0000 C   0  0  0  0  0  0           0  0  0
    2.9417   -0.9125    0.0000 C   0  0  0  0  0  0           0  0  0
    3.6542   -2.1542    0.0000 C   0  0  0  0  0  0           0  0  0
    7.2250   -1.7667    0.0000 C   0  0  0  0  0  0           0  0  0
    7.2292   -0.9375    0.0000 C   0  0  0  0  0  0           0  0  0
    6.5042   -2.1750    0.0000 C   0  0  0  0  0  0           0  0  0
    7.9375   -2.1792    0.0000 F   0  0  0  0  0  0           0  0  0
   -1.4333   -1.9542    0.0000 C   0  0  0  0  0  0           0  0  0
    0.7875   -3.6292    0.0000 C   0  0  0  0  0  0           0  0  0
   -0.0208   -3.8042    0.0000 C   0  0  0  0  0  0           0  0  0
    1.1542   -2.8792    0.0000 C   0  0  0  0  0  0           0  0  0
   -1.4333   -3.6125    0.0000 C   0  0  0  0  0  0           0  0  0
   -2.1458   -2.3750    0.0000 C   0  0  0  0  0  0           0  0  0
   -2.1458   -3.2000    0.0000 C   0  0  0  0  0  0           0  0  0
  2  1  1  0     0  0
  3  6  1  0     0  0
  4 16  1  0     0  0
  5  3  1  0     0  0
  6 15  1  0     0  0
  7  1  2  0     0  0
  8  1  1  0     0  0
  9  2  1  0     0  0
 10  3  2  0     0  0
 11  8  1  0     0  0
 12  5  2  0     0  0
 13  5  1  0     0  0
 14 17  1  0     0  0
 15 18  1  0     0  0
 16 11  1  0     0  0
 17  4  1  0     0  0
 18  4  1  0     0  0
 19 20  1  0     0  0
 20 13  2  0     0  0
 21 12  1  0     0  0
 22 19  1  0     0  0
 23  2  2  0     0  0
 24 26  1  0     0  0
 25  9  1  0     0  0
 26  8  1  0     0  0
 27  9  2  0     0  0
 28 23  1  0     0  0
 29 28  2  0     0  0
 24 25  1  0     0  0
 27 29  1  0     0  0
  6 14  1  0     0  0
 21 19  2  0     0  0
M  END