
          11280715442D 1   1.00000     0.00000     0

 34 38  0     1  0            999 V2000
    0.9792   -3.1042    0.0000 N   0  0  3  0  0  0           0  0  0
    2.4167   -3.1000    0.0000 C   0  0  1  0  0  0           0  0  0
    0.9875   -2.2750    0.0000 C   0  0  0  0  0  0           0  0  0
    5.3417   -2.0542    0.0000 C   0  0  3  0  0  0           0  0  0
    4.5542   -2.6667    0.0000 N   0  0  3  0  0  0           0  0  0
    6.0125   -1.5750    0.0000 N   0  0  3  0  0  0           0  0  0
    1.7000   -3.5042    0.0000 C   0  0  0  0  0  0           0  0  0
    2.4167   -3.9250    0.0000 C   0  0  0  0  0  0           0  0  0
    5.2750   -3.0792    0.0000 C   0  0  0  0  0  0           0  0  0
    4.5500   -1.8417    0.0000 C   0  0  0  0  0  0           0  0  0
    3.1375   -5.1667    0.0000 C   0  0  0  0  0  0           0  0  0
    3.1375   -4.3375    0.0000 C   0  0  0  0  0  0           0  0  0
    0.2667   -3.5167    0.0000 C   0  0  0  0  0  0           0  0  0
    2.4167   -5.5792    0.0000 C   0  0  0  0  0  0           0  0  0
    2.4167   -2.2750    0.0000 C   0  0  0  0  0  0           0  0  0
    1.7000   -1.8625    0.0000 C   0  0  0  0  0  0           0  0  0
    0.2667   -1.8625    0.0000 O   0  0  0  0  0  0           0  0  0
    3.1292   -2.6792    0.0000 C   0  0  0  0  0  0           0  0  0
    1.7042   -4.3375    0.0000 C   0  0  0  0  0  0           0  0  0
    1.7042   -5.1667    0.0000 C   0  0  0  0  0  0           0  0  0
    3.8417   -3.0875    0.0000 C   0  0  0  0  0  0           0  0  0
    7.3542   -0.6250    0.0000 O   0  0  0  0  0  0           0  0  0
    3.8542   -5.5792    0.0000 Cl  0  0  0  0  0  0           0  0  0
    2.4167   -6.4042    0.0000 Cl  0  0  0  0  0  0           0  0  0
    5.9292   -0.7625    0.0000 C   0  0  0  0  0  0           0  0  0
    6.7667   -1.9167    0.0000 C   0  0  0  0  0  0           0  0  0
   -0.4458   -3.1125    0.0000 C   0  0  3  0  0  0           0  0  0
    6.6042   -0.2792    0.0000 C   0  0  0  0  0  0           0  0  0
    7.4292   -1.4417    0.0000 C   0  0  0  0  0  0           0  0  0
   -0.4458   -2.2875    0.0000 C   0  0  0  0  0  0           0  0  0
   -1.1583   -3.5292    0.0000 C   0  0  0  0  0  0           0  0  0
   -1.8708   -3.1167    0.0000 C   0  0  0  0  0  0           0  0  0
   -1.1583   -1.8792    0.0000 C   0  0  0  0  0  0           0  0  0
   -1.8750   -2.2917    0.0000 C   0  0  0  0  0  0           0  0  0
  2  7  1  0     0  0
  3  1  1  0     0  0
  4 10  1  0     0  0
  5 21  1  0     0  0
  6  4  1  0     0  0
  7  1  1  0     0  0
  2  8  1  6     0  0
  9  5  1  0     0  0
 10  5  1  0     0  0
 11 12  1  0     0  0
 12  8  2  0     0  0
 13  1  1  0     0  0
 14 20  1  0     0  0
 15  2  1  0     0  0
 16  3  1  0     0  0
 17  3  2  0     0  0
  2 18  1  1     0  0
 19  8  1  0     0  0
 20 19  2  0     0  0
 21 18  1  0     0  0
 22 29  1  0     0  0
 23 11  1  0     0  0
 24 14  1  0     0  0
 25  6  1  0     0  0
 26  6  1  0     0  0
 27 13  1  0     0  0
 28 25  1  0     0  0
 29 26  1  0     0  0
 30 27  1  0     0  0
 31 27  1  0     0  0
 32 31  1  0     0  0
 33 30  1  0     0  0
 34 32  1  0     0  0
 16 15  1  0     0  0
 33 34  1  0     0  0
  9  4  1  0     0  0
 14 11  2  0     0  0
 28 22  1  0     0  0
M  END