
          11280715032D 1   1.00000     0.00000     0

 32 34  0     1  0            999 V2000
    1.0750   -5.6667    0.0000 N   0  0  0  0  0  0           0  0  0
    0.2792   -5.4250    0.0000 C   0  0  0  0  0  0           0  0  0
    1.5375   -4.9917    0.0000 C   0  0  0  0  0  0           0  0  0
    1.0417   -4.3167    0.0000 N   0  0  0  0  0  0           0  0  0
    0.2667   -4.6000    0.0000 C   0  0  0  0  0  0           0  0  0
   -0.3708   -5.9250    0.0000 C   0  0  0  0  0  0           0  0  0
    2.3625   -4.9625    0.0000 C   0  0  0  0  0  0           0  0  0
   10.1167   -1.2167    0.0000 C   0  0  0  0  0  0           0  0  0
    9.6875   -0.5042    0.0000 C   0  0  0  0  0  0           0  0  0
    9.7167   -1.9375    0.0000 C   0  0  0  0  0  0           0  0  0
   -1.1333   -5.6042    0.0000 O   0  0  0  0  0  0           0  0  0
    2.7917   -5.6667    0.0000 C   0  0  0  0  0  0           0  0  0
    2.7542   -4.2417    0.0000 C   0  0  0  0  0  0           0  0  0
    8.8625   -0.5292    0.0000 C   0  0  0  0  0  0           0  0  0
    4.8375   -4.9125    0.0000 O   0  0  0  0  0  0           0  0  0
    4.0125   -4.9292    0.0000 C   0  0  0  0  0  0           0  0  0
    8.8917   -1.9542    0.0000 C   0  0  0  0  0  0           0  0  0
    6.0542   -4.1667    0.0000 C   0  0  1  0  0  0           0  0  0
    5.2292   -4.1875    0.0000 C   0  0  0  0  0  0           0  0  0
    3.6167   -5.6500    0.0000 C   0  0  0  0  0  0           0  0  0
    3.5792   -4.2250    0.0000 C   0  0  0  0  0  0           0  0  0
    8.4667   -1.2500    0.0000 C   0  0  0  0  0  0           0  0  0
   10.9417   -1.1917    0.0000 O   0  0  0  0  0  0           0  0  0
    7.2792   -3.4250    0.0000 N   0  0  0  0  0  0           0  0  0
   10.0792    0.2125    0.0000 O   0  0  0  0  0  0           0  0  0
    6.4875   -4.8667    0.0000 O   0  0  0  0  0  0           0  0  0
    6.4542   -3.4417    0.0000 C   0  0  0  0  0  0           0  0  0
   -0.2708   -6.7500    0.0000 C   0  0  0  0  0  0           0  0  0
    7.6750   -2.6917    0.0000 C   0  0  0  0  0  0           0  0  0
    8.5000   -2.6750    0.0000 C   0  0  0  0  0  0           0  0  0
   11.3667   -1.8917    0.0000 C   0  0  0  0  0  0           0  0  0
    9.6625    0.9208    0.0000 C   0  0  0  0  0  0           0  0  0
  2  1  1  0     0  0
  3  1  2  0     0  0
  4  3  1  0     0  0
  5  2  2  0     0  0
  6  2  1  0     0  0
  7  3  1  0     0  0
  8 10  1  0     0  0
  9 14  1  0     0  0
 10 17  2  0     0  0
 11  6  2  0     0  0
 12  7  2  0     0  0
 13  7  1  0     0  0
 14 22  2  0     0  0
 15 16  1  0     0  0
 16 21  1  0     0  0
 17 30  1  0     0  0
 18 19  1  0     0  0
 19 15  1  0     0  0
 20 12  1  0     0  0
 21 13  2  0     0  0
 22 17  1  0     0  0
 23  8  1  0     0  0
 24 27  1  0     0  0
 25  9  1  0     0  0
 18 26  1  6     0  0
 27 18  1  0     0  0
 28  6  1  0     0  0
 29 24  1  0     0  0
 30 29  1  0     0  0
 31 23  1  0     0  0
 32 25  1  0     0  0
  5  4  1  0     0  0
 16 20  2  0     0  0
  9  8  2  0     0  0
M  END