
          11280714532D 1   1.00000     0.00000     0

 30 31  0     0  0            999 V2000
   -1.6500   -2.2792    0.0000 C   0  0  0  0  0  0           0  0  0
   -1.1333   -2.5750    0.0000 N   0  0  0  0  0  0           0  0  0
   -0.6125   -2.2750    0.0000 C   0  0  0  0  0  0           0  0  0
   -2.1708   -2.5792    0.0000 C   0  0  0  0  0  0           0  0  0
   -0.0875   -2.5667    0.0000 N   0  0  0  0  0  0           0  0  0
    0.4292   -2.2667    0.0000 C   0  0  3  0  0  0           0  0  0
    1.5167   -2.2667    0.0000 N   0  0  3  0  0  0           0  0  0
    2.4292   -3.2292    0.0000 C   0  0  0  0  0  0           0  0  0
    3.6292   -2.1917    0.0000 C   0  0  0  0  0  0           0  0  0
    2.7292   -2.7125    0.0000 C   0  0  0  0  0  0           0  0  0
    3.3292   -2.7125    0.0000 C   0  0  0  0  0  0           0  0  0
    0.9667   -2.5792    0.0000 C   0  0  0  0  0  0           0  0  0
   -1.6583   -1.6792    0.0000 O   0  0  0  0  0  0           0  0  0
   -2.6875   -2.2792    0.0000 C   0  0  0  0  0  0           0  0  0
    0.4292   -1.6292    0.0000 C   0  0  3  0  0  0           0  0  0
   -0.6125   -1.6750    0.0000 O   0  0  0  0  0  0           0  0  0
    3.2417   -1.7292    0.0000 O   0  0  0  0  0  0           0  0  0
    1.8292   -3.2292    0.0000 O   0  0  0  0  0  0           0  0  0
    0.9667   -1.3167    0.0000 C   0  0  0  0  0  0           0  0  0
    1.0917   -1.7917    0.0000 C   0  0  0  0  0  0           0  0  0
    1.5167   -1.6292    0.0000 C   0  0  0  0  0  0           0  0  0
    0.6417   -2.1500    0.0000 C   0  0  0  0  0  0           0  0  0
    4.2167   -2.0917    0.0000 O   0  0  0  0  0  0           0  0  0
    2.7292   -3.7500    0.0000 O   0  0  0  0  0  0           0  0  0
   -2.1708   -3.1875    0.0000 C   0  0  0  0  0  0           0  0  0
   -2.6958   -1.6792    0.0000 O   0  0  0  0  0  0           0  0  0
   -3.2083   -2.5792    0.0000 C   0  0  0  0  0  0           0  0  0
   -3.2125   -1.3875    0.0000 C   0  0  0  0  0  0           0  0  0
   -2.6875   -3.4875    0.0000 C   0  0  0  0  0  0           0  0  0
   -3.2083   -3.1875    0.0000 C   0  0  0  0  0  0           0  0  0
  2  1  1  0     0  0
  3  2  1  0     0  0
  4  1  1  0     0  0
  5  3  1  0     0  0
  6  5  1  0     0  0
  7 12  1  0     0  0
  9 11  1  0     0  0
 10  8  1  0     0  0
 11 10  2  0     0  0
 12  6  1  0     0  0
 13  1  2  0     0  0
 14  4  2  0     0  0
 15  6  1  0     0  0
 16  3  2  0     0  0
 17  9  2  0     0  0
 18  8  2  0     0  0
 19 15  1  0     0  0
 20 15  1  0     0  0
 21  7  1  0     0  0
 22  7  1  0     0  0
 23  9  1  0     0  0
 24  8  1  0     0  0
 25  4  1  0     0  0
 26 14  1  0     0  0
 27 14  1  0     0  0
 28 26  1  0     0  0
 29 25  2  0     0  0
 30 29  1  0     0  0
 30 27  2  0     0  0
 20 22  1  0     0  0
 19 21  1  0     0  0
M  END