
          03140815512D 1   1.00000     0.00000     0

 17 18  0     0  0            999 V2000
    8.4792  -11.6625    0.0000 N   0  0  3  0  0  0           0  0  0
    8.4792  -12.4875    0.0000 C   0  0  0  0  0  0           0  0  0
    9.1912  -12.8958    0.0000 C   0  0  0  0  0  0           0  0  0
    9.9032  -12.4875    0.0000 O   0  0  0  0  0  0           0  0  0
    9.9032  -11.6625    0.0000 C   0  0  0  0  0  0           0  0  0
    9.1912  -11.2458    0.0000 C   0  0  0  0  0  0           0  0  0
    7.7635  -11.2521    0.0000 C   0  0  0  0  0  0           0  0  0
    7.7611  -10.4271    0.0000 O   0  0  0  0  0  0           0  0  0
    7.0502  -11.6667    0.0000 C   0  0  0  0  0  0           0  0  0
    6.3346  -11.2563    0.0000 O   0  0  0  0  0  0           0  0  0
    5.6213  -11.6709    0.0000 C   0  0  0  0  0  0           0  0  0
    4.9063  -11.2571    0.0000 C   0  0  0  0  0  0           0  0  0
    4.1936  -11.6710    0.0000 C   0  0  0  0  0  0           0  0  0
    4.1955  -12.4969    0.0000 C   0  0  0  0  0  0           0  0  0
    4.9162  -12.9071    0.0000 C   0  0  0  0  0  0           0  0  0
    5.6261  -12.4909    0.0000 C   0  0  0  0  0  0           0  0  0
    3.4828  -12.9125    0.0000 F   0  0  0  0  0  0           0  0  0
  1  6  1  0     0  0
  7  9  1  0     0  0
  2  3  1  0     0  0
  9 10  1  0     0  0
  3  4  1  0     0  0
 10 11  1  0     0  0
  4  5  1  0     0  0
 11 12  2  0     0  0
  5  6  1  0     0  0
 12 13  1  0     0  0
 13 14  2  0     0  0
  1  7  1  0     0  0
 14 15  1  0     0  0
  1  2  1  0     0  0
 15 16  2  0     0  0
 16 11  1  0     0  0
  7  8  2  0     0  0
 14 17  1  0     0  0
M  END