
  SciTegic02011310462D

 40 42  0  0  0  0            999 V2000
   21.7098   -5.4226    0.0000 C   0  0
   21.7086   -6.2499    0.0000 C   0  0
   22.4240   -6.6649    0.0000 C   0  0
   23.1369   -6.2495    0.0000 C   0  0
   23.1340   -5.4190    0.0000 C   0  0
   22.4222   -5.0119    0.0000 C   0  0
   22.4238   -7.4899    0.0000 C   0  0
   22.4198   -4.1869    0.0000 C   0  0
   20.9946   -5.0124    0.0000 Cl  0  0
   23.8525   -6.6629    0.0000 S   0  0
   24.5669   -6.2472    0.0000 N   0  0
   25.2826   -6.6607    0.0000 C   0  0
   25.2793   -7.4841    0.0000 C   0  0
   25.9941   -7.8933    0.0000 C   0  0
   26.7095   -7.4818    0.0000 C   0  0
   26.7055   -6.6525    0.0000 C   0  0
   25.9901   -6.2429    0.0000 C   0  0
   23.6348   -7.4582    0.0000 O   0  0
   24.2608   -7.3752    0.0000 O   0  0
   27.4135   -6.2362    0.0000 C   0  0
   28.1309   -6.6489    0.0000 C   0  0
   28.8393   -6.2314    0.0000 C   0  0
   28.8354   -5.4055    0.0000 C   0  0
   28.1175   -4.9989    0.0000 C   0  0
   27.4080   -5.4146    0.0000 C   0  0
   28.1104   -4.1739    0.0000 C   0  0
   29.5562   -6.6427    0.0000 C   0  0
   29.5478   -4.9905    0.0000 C   0  0
   30.2655   -5.3964    0.0000 N   0  0
   29.5426   -4.1655    0.0000 O   0  0
   30.9779   -4.9814    0.0000 C   0  0  2  0  0  0
   31.6955   -5.3873    0.0000 C   0  0
   32.4079   -4.9723    0.0000 O   0  0
   31.7008   -6.2122    0.0000 O   0  0
   30.9726   -4.1564    0.0000 C   0  0
   31.6850   -3.7373    0.0000 C   0  0
   31.6797   -2.9123    0.0000 N   0  0
   32.3921   -2.4972    0.0000 C   0  0
   30.9620   -2.5064    0.0000 C   0  0
   30.2708   -6.2214    0.0000 C   0  0
  1  2  2  0
  2  3  1  0
  3  4  2  0
  4  5  1  0
  5  6  2  0
  6  1  1  0
  3  7  1  0
  6  8  1  0
  1  9  1  0
  4 10  1  0
 10 11  1  0
 11 12  1  0
 12 13  2  0
 13 14  1  0
 14 15  2  0
 15 16  1  0
 16 17  2  0
 17 12  1  0
 10 18  2  0
 10 19  2  0
 20 21  2  0
 21 22  1  0
 22 23  2  0
 23 24  1  0
 24 25  2  0
 25 20  1  0
 16 20  1  0
 24 26  1  0
 22 27  1  0
 23 28  1  0
 28 29  1  0
 28 30  2  0
 29 31  1  0
 31 32  1  0
 32 33  1  0
 32 34  2  0
 31 35  1  1
 35 36  1  0
 36 37  1  0
 37 38  1  0
 37 39  1  0
 29 40  1  0
M  END