
          03140815512D 1   1.00000     0.00000     0

 16 17  0     0  0            999 V2000
   -1.2917   -4.8417    0.0000 N   0  0  3  0  0  0           0  0  0
   -1.2917   -5.6667    0.0000 C   0  0  0  0  0  0           0  0  0
   -0.5796   -6.0750    0.0000 C   0  0  0  0  0  0           0  0  0
    0.1324   -5.6667    0.0000 O   0  0  0  0  0  0           0  0  0
    0.1324   -4.8417    0.0000 C   0  0  0  0  0  0           0  0  0
   -0.5796   -4.4250    0.0000 C   0  0  0  0  0  0           0  0  0
   -2.0073   -4.4313    0.0000 C   0  0  0  0  0  0           0  0  0
   -2.0098   -3.6063    0.0000 O   0  0  0  0  0  0           0  0  0
   -2.7206   -4.8459    0.0000 C   0  0  0  0  0  0           0  0  0
   -3.4363   -4.4354    0.0000 S   0  0  0  0  0  0           0  0  0
   -4.1495   -4.8500    0.0000 C   0  0  0  0  0  0           0  0  0
   -4.8666   -4.4399    0.0000 C   0  0  0  0  0  0           0  0  0
   -5.5793   -4.8538    0.0000 C   0  0  0  0  0  0           0  0  0
   -5.5774   -5.6797    0.0000 C   0  0  0  0  0  0           0  0  0
   -4.8567   -6.0899    0.0000 C   0  0  0  0  0  0           0  0  0
   -4.1468   -5.6737    0.0000 C   0  0  0  0  0  0           0  0  0
  7  8  2  0     0  0
  1  6  1  0     0  0
  7  9  1  0     0  0
  2  3  1  0     0  0
  9 10  1  0     0  0
  3  4  1  0     0  0
 10 11  1  0     0  0
  4  5  1  0     0  0
 11 12  2  0     0  0
  5  6  1  0     0  0
 12 13  1  0     0  0
 13 14  2  0     0  0
  1  7  1  0     0  0
 14 15  1  0     0  0
  1  2  1  0     0  0
 15 16  2  0     0  0
 16 11  1  0     0  0
M  END