
          11280715432D 1   1.00000     0.00000     0

 24 26  0     1  0            999 V2000
   -0.7083   -1.2042    0.0000 C   0  0  0  0  0  0           0  0  0
    0.4292   -0.4917    0.0000 C   0  0  0  0  0  0           0  0  0
   -0.2083    0.0333    0.0000 C   0  0  0  0  0  0           0  0  0
    0.1167   -1.2542    0.0000 N   0  0  0  0  0  0           0  0  0
   -0.8958   -0.4042    0.0000 S   0  0  0  0  0  0           0  0  0
   -1.2458   -1.8292    0.0000 N   0  0  0  0  0  0           0  0  0
   -2.0500   -1.6792    0.0000 C   0  0  0  0  0  0           0  0  0
    1.2000   -0.2167    0.0000 C   0  0  0  0  0  0           0  0  0
   -0.1833    0.8583    0.0000 C   0  0  0  0  0  0           0  0  0
   -2.5833   -2.3042    0.0000 O   0  0  0  0  0  0           0  0  0
   -2.3250   -0.9042    0.0000 C   0  0  1  0  0  0           0  0  0
    1.3375    0.5958    0.0000 C   0  0  0  0  0  0           0  0  0
    1.8292   -0.7375    0.0000 C   0  0  0  0  0  0           0  0  0
    2.7375    0.3583    0.0000 C   0  0  0  0  0  0           0  0  0
   -3.1333   -0.7542    0.0000 N   0  0  0  0  0  0           0  0  0
    2.6000   -0.4542    0.0000 C   0  0  0  0  0  0           0  0  0
    2.1125    0.8833    0.0000 C   0  0  0  0  0  0           0  0  0
    3.5292    0.6333    0.0000 Br  0  0  0  0  0  0           0  0  0
   -0.8875    1.2833    0.0000 C   0  0  0  0  0  0           0  0  0
    0.5375    1.2583    0.0000 C   0  0  0  0  0  0           0  0  0
   -1.7958   -0.2792    0.0000 C   0  0  0  0  0  0           0  0  0
   -0.8708    2.1208    0.0000 C   0  0  0  0  0  0           0  0  0
    0.5542    2.0833    0.0000 C   0  0  0  0  0  0           0  0  0
   -0.1458    2.5208    0.0000 C   0  0  0  0  0  0           0  0  0
  2  4  1  0     0  0
  3  5  1  0     0  0
  4  1  2  0     0  0
  5  1  1  0     0  0
  6  1  1  0     0  0
  7  6  1  0     0  0
  8  2  1  0     0  0
  9  3  1  0     0  0
 10  7  2  0     0  0
 11  7  1  0     0  0
 12  8  1  0     0  0
 13  8  2  0     0  0
 14 16  2  0     0  0
 15 11  1  0     0  0
 16 13  1  0     0  0
 17 12  2  0     0  0
 18 14  1  0     0  0
 19  9  1  0     0  0
 20  9  2  0     0  0
 11 21  1  1     0  0
 22 19  2  0     0  0
 23 20  1  0     0  0
 24 23  2  0     0  0
  3  2  2  0     0  0
 14 17  1  0     0  0
 24 22  1  0     0  0
M  END