
          11280714552D 1   1.00000     0.00000     0

 20 21  0     0  0            999 V2000
    3.1500   -6.9917    0.0000 C   0  0  0  0  0  0           0  0  0
    3.1500   -7.8042    0.0000 C   0  0  0  0  0  0           0  0  0
    3.8625   -6.5750    0.0000 C   0  0  0  0  0  0           0  0  0
    2.4292   -8.2375    0.0000 N   0  0  0  0  0  0           0  0  0
    1.7167   -7.0000    0.0000 C   0  0  0  0  0  0           0  0  0
    6.0042   -7.7917    0.0000 N   0  3  3  0  0  0           0  0  0
    1.7167   -7.8250    0.0000 C   0  0  0  0  0  0           0  0  0
    4.5792   -6.9792    0.0000 C   0  0  3  0  0  0           0  0  0
    3.8542   -5.7500    0.0000 O   0  0  0  0  0  0           0  0  0
    5.4292   -9.0542    0.0000 I   0  5  0  0  0  0           0  0  0
    5.2917   -8.2125    0.0000 C   0  0  0  0  0  0           0  0  0
    6.0042   -6.9667    0.0000 C   0  0  0  0  0  0           0  0  0
    5.2875   -6.5542    0.0000 C   0  0  0  0  0  0           0  0  0
    4.5792   -7.8042    0.0000 C   0  0  0  0  0  0           0  0  0
    6.0042   -8.6167    0.0000 C   0  0  0  0  0  0           0  0  0
    6.7167   -7.3750    0.0000 C   0  0  0  0  0  0           0  0  0
    1.0042   -6.5875    0.0000 C   0  0  0  0  0  0           0  0  0
    1.0042   -8.2292    0.0000 C   0  0  0  0  0  0           0  0  0
    0.2917   -7.0000    0.0000 C   0  0  0  0  0  0           0  0  0
    0.2917   -7.8292    0.0000 C   0  0  0  0  0  0           0  0  0
  2  1  2  0     0  0
  3  1  1  0     0  0
  4  2  1  0     0  0
  5  1  1  0     0  0
  6 12  1  0     0  0
  7  5  2  0     0  0
  8  3  1  0     0  0
  9  3  2  0     0  0
 11 14  1  0     0  0
 12 13  1  0     0  0
 13  8  1  0     0  0
 14  8  1  0     0  0
 15  6  1  0     0  0
 16  6  1  0     0  0
 17  5  1  0     0  0
 18  7  1  0     0  0
 19 17  2  0     0  0
 20 19  1  0     0  0
  7  4  1  0     0  0
 20 18  2  0     0  0
 11  6  1  0     0  0
M  CHG  2   6   1  10  -1
M  END