
  SciTegic05171617272D

 49 55  0  0  0  0            999 V2000
    5.8814    2.1657    0.0000 C   0  0
    5.8722    0.9657    0.0000 N   0  0
    6.9070    0.3581    0.0000 C   0  0
    4.5671    0.2243    0.0000 C   0  0
    4.5671   -1.2660    0.0000 C   0  0
    3.2691   -2.0191    0.0000 C   0  0
    1.9711   -1.2660    0.0000 C   0  0
    0.6891   -2.0191    0.0000 C   0  0
   -0.6089   -1.2660    0.0000 C   0  0
   -1.9070   -2.0191    0.0000 C   0  0
   -3.2050   -1.2660    0.0000 C   0  0
   -4.5030   -2.0191    0.0000 C   0  0
   -5.8010   -1.2660    0.0000 C   0  0
   -5.8010    0.2243    0.0000 C   0  0
   -4.5030    0.9935    0.0000 N   0  3
   -4.5061    2.4940    0.0000 C   0  0
   -5.8069    3.2426    0.0000 C   0  0
   -5.8100    4.7434    0.0000 C   0  0
   -7.1108    5.4919    0.0000 C   0  0
   -8.1490    4.8901    0.0000 O   0  0
   -7.1139    6.9928    0.0000 N   0  0
   -6.0757    7.5946    0.0000 C   0  0
   -8.4147    7.7413    0.0000 C   0  0
   -8.4178    9.2421    0.0000 C   0  0
   -7.3796    9.8439    0.0000 O   0  0
   -9.7186    9.9907    0.0000 N   0  0
   -9.7217   11.4915    0.0000 C   0  0
  -11.0390   12.2961    0.0000 C   0  0
  -11.0011   13.7905    0.0000 C   0  0
   -9.6783   14.5201    0.0000 C   0  0
   -9.6499   15.9989    0.0000 N   0  0
   -8.3366   16.7130    0.0000 C   0  0
   -8.3060   17.9126    0.0000 O   0  0
   -7.0147   15.9042    0.0000 C   0  0
   -5.7385   16.6623    0.0000 C   0  0
   -4.4632   15.8821    0.0000 C   0  0
   -4.4952   14.3626    0.0000 C   0  0
   -5.8240   13.6581    0.0000 C   0  0
   -7.0993   14.4384    0.0000 C   0  0
   -8.3564   13.7113    0.0000 C   0  0
   -8.4505   12.2299    0.0000 C   0  0
   -3.2050    0.2243    0.0000 C   0  0
   -1.9070    0.9935    0.0000 C   0  0
   -0.6089    0.2243    0.0000 C   0  0
    0.6891    0.9935    0.0000 C   0  0
    1.7431    1.5672    0.0000 C   0  0
   -0.3617    1.5731    0.0000 C   0  0
    1.9711    0.2243    0.0000 C   0  0
    3.2691    0.9935    0.0000 C   0  0
  1  2  1  0
  2  3  1  0
  2  4  1  0
  4  5  2  0
  5  6  1  0
  6  7  2  0
  7  8  1  0
  8  9  2  0
  9 10  1  0
 10 11  2  0
 11 12  1  0
 12 13  1  0
 13 14  1  0
 14 15  1  0
 15 16  1  0
 16 17  1  0
 17 18  1  0
 18 19  1  0
 19 20  2  0
 19 21  1  0
 21 22  1  0
 21 23  1  0
 23 24  1  0
 24 25  2  0
 24 26  1  0
 26 27  1  0
 27 28  2  0
 28 29  1  0
 29 30  2  0
 30 31  1  0
 31 32  1  0
 32 33  2  0
 32 34  1  0
 34 35  2  0
 35 36  1  0
 36 37  2  0
 37 38  1  0
 38 39  2  0
 34 39  1  0
 39 40  1  0
 30 40  1  0
 40 41  2  0
 27 41  1  0
 15 42  2  0
 11 42  1  0
 42 43  1  0
 43 44  2  0
  9 44  1  0
 44 45  1  0
 45 46  1  0
 45 47  1  0
 45 48  1  0
  7 48  1  0
 48 49  2  0
  4 49  1  0
M  CHG  1  15   1
M  END