
  SciTegic01161211232D

 30 33  0  0  0  0            999 V2000
    4.7100   -9.0155    0.0000 C   0  0
    5.3718   -8.5222    0.0000 N   0  0
    5.1072   -7.7404    0.0000 C   0  0
    4.2818   -7.7504    0.0000 C   0  0
    4.0366   -8.5379    0.0000 N   0  0
    3.3222   -8.9436    0.0000 C   0  0
    2.6112   -8.5230    0.0000 C   0  0
    1.8935   -8.9284    0.0000 C   0  0
    1.8857   -9.7543    0.0000 C   0  0
    2.6015  -10.1730    0.0000 C   0  0
    3.3162   -9.7652    0.0000 C   0  0
    5.5113   -7.0206    0.0000 C   0  0
    6.3362   -7.0107    0.0000 N   0  0
    5.0902   -6.3112    0.0000 O   0  0
    6.7401   -6.2912    0.0000 N   0  0
    7.5670   -6.2865    0.0000 C   0  0
    7.9709   -5.5730    0.0000 C   0  0
    7.5537   -4.8644    0.0000 C   0  0
    6.7276   -4.8706    0.0000 C   0  0
    6.3196   -5.5938    0.0000 C   0  0
    4.7223   -9.8383    0.0000 C   0  0
    4.0112  -10.2589    0.0000 C   0  0
    4.0209  -11.0831    0.0000 C   0  0
    4.7409  -11.4877    0.0000 C   0  0
    5.4526  -11.0620    0.0000 C   0  0
    5.4394  -10.2393    0.0000 C   0  0
    1.1682  -10.1614    0.0000 Cl  0  0
    6.1477   -9.8162    0.0000 Cl  0  0
    4.7521  -12.3126    0.0000 Cl  0  0
    3.7887   -7.0890    0.0000 C   0  0
  2  3  1  0
 13 15  1  0
 15 16  1  0
  7  8  1  0
  3  4  2  0
  8  9  2  0
  4  5  1  0
  9 10  1  0
 15 20  1  0
 16 17  1  0
 17 18  1  0
 18 19  1  0
 19 20  1  0
  5  1  1  0
 10 11  2  0
 21 22  2  0
 11  6  1  0
 22 23  1  0
  5  6  1  0
 23 24  2  0
  1  2  2  0
 24 25  1  0
  3 12  1  0
 25 26  2  0
 26 21  1  0
  1 21  1  0
  9 27  1  0
 12 13  1  0
 26 28  1  0
  6  7  2  0
 24 29  1  0
 12 14  2  0
  4 30  1  0
M  END