
  SciTegic09291413392D

 27 29  0  0  0  0            999 V2000
    5.9542  -16.4882    0.0000 C   0  0
    5.9530  -17.3078    0.0000 C   0  0
    6.6611  -17.7167    0.0000 C   0  0
    6.6593  -16.0794    0.0000 C   0  0
    7.3679  -16.4846    0.0000 C   0  0
    7.3687  -17.3037    0.0000 C   0  0
    8.0772  -17.7107    0.0000 N   0  0
    8.7855  -17.2999    0.0000 C   0  0
    8.7807  -16.4778    0.0000 C   0  0
    8.0716  -16.0744    0.0000 C   0  0
    8.0667  -15.2623    0.0000 C   0  0
    8.7739  -14.8505    0.0000 C   0  0
    8.7699  -14.0341    0.0000 C   0  0
    8.0595  -13.6285    0.0000 C   0  0
    7.3517  -14.0452    0.0000 C   0  0
    7.3591  -14.8603    0.0000 C   0  0
    9.4859  -16.0649    0.0000 C   0  0  1  0  0  0
   10.1961  -16.4692    0.0000 C   0  0
   10.2023  -17.2870    0.0000 O   0  0
   10.9026  -16.0569    0.0000 O   0  0
    9.4948  -17.7057    0.0000 C   0  0
    5.2464  -16.0798    0.0000 Br  0  0
    8.0541  -12.8113    0.0000 Cl  0  0
    9.4810  -15.2477    0.0000 O   0  0
   10.1862  -14.8348    0.0000 C   0  0
   10.1812  -14.0176    0.0000 C   0  0
   10.8964  -15.2391    0.0000 C   0  0
  1  2  2  0
  2  3  1  0
  3  6  2  0
  5  4  2  0
  4  1  1  0
  5  6  1  0
  6  7  1  0
  7  8  2  0
  8  9  1  0
  9 10  2  0
 10  5  1  0
 11 12  2  0
 12 13  1  0
 13 14  2  0
 14 15  1  0
 15 16  2  0
 16 11  1  0
 10 11  1  0
  9 17  1  0
 17 18  1  0
 18 19  1  0
 18 20  2  0
  8 21  1  0
  1 22  1  0
 14 23  1  0
 17 24  1  6
 24 25  1  0
 25 26  1  0
 25 27  1  0
M  END