
          11280715352D 1   1.00000     0.00000     0

 47 51  0     1  0            999 V2000
    6.3542   -5.6292    0.0000 N   0  0  3  0  0  0           0  0  0
    4.9750   -7.9625    0.0000 N   0  0  3  0  0  0           0  0  0
    7.1625   -5.4667    0.0000 C   0  0  3  0  0  0           0  0  0
    5.3042   -7.2167    0.0000 C   0  0  0  0  0  0           0  0  0
    5.5417   -5.2542    0.0000 C   0  0  0  0  0  0           0  0  0
    7.7542   -5.7542    0.0000 C   0  0  0  0  0  0           0  0  0
    3.4667   -5.6875    0.0000 C   0  0  0  0  0  0           0  0  0
    2.7542   -5.2750    0.0000 C   0  0  3  0  0  0           0  0  0
    4.9000   -5.6875    0.0000 C   0  0  2  0  0  0           0  0  0
    6.1167   -7.3042    0.0000 C   0  0  0  0  0  0           0  0  0
    5.9500   -4.9042    0.0000 C   0  0  3  0  0  0           0  0  0
    5.5792   -8.5125    0.0000 C   0  0  0  0  0  0           0  0  0
    4.1875   -5.2750    0.0000 N   0  0  0  0  0  0           0  0  0
    4.9000   -6.5125    0.0000 C   0  0  0  0  0  0           0  0  0
    7.2625   -4.6500    0.0000 C   0  0  0  0  0  0           0  0  0
    8.4750   -5.2750    0.0000 N   0  0  3  0  0  0           0  0  0
    6.2875   -8.1042    0.0000 C   0  0  0  0  0  0           0  0  0
    4.1667   -8.1292    0.0000 C   0  0  0  0  0  0           0  0  0
    2.0417   -5.6875    0.0000 N   0  0  0  0  0  0           0  0  0
    6.5125   -4.3042    0.0000 C   0  0  3  0  0  0           0  0  0
    1.3292   -5.2750    0.0000 C   0  0  0  0  0  0           0  0  0
    5.5042   -6.1292    0.0000 O   0  0  0  0  0  0           0  0  0
    7.7542   -6.5125    0.0000 O   0  0  0  0  0  0           0  0  0
    3.4667   -6.5125    0.0000 O   0  0  0  0  0  0           0  0  0
    9.1875   -5.6875    0.0000 C   0  0  0  0  0  0           0  0  0
    3.6167   -7.5167    0.0000 O   0  0  0  0  0  0           0  0  0
    2.7542   -4.4417    0.0000 C   0  0  3  0  0  0           0  0  0
    1.3292   -4.4417    0.0000 O   0  0  0  0  0  0           0  0  0
    9.9042   -5.2750    0.0000 C   0  0  0  0  0  0           0  0  0
    2.0417   -4.0375    0.0000 O   0  0  0  0  0  0           0  0  0
    8.4750   -4.4417    0.0000 C   0  0  0  0  0  0           0  0  0
    5.5750   -9.3250    0.0000 C   0  0  0  0  0  0           0  0  0
    5.1500   -4.7250    0.0000 C   0  0  0  0  0  0           0  0  0
    6.9875   -8.5167    0.0000 C   0  0  0  0  0  0           0  0  0
    3.9125   -8.9167    0.0000 C   0  0  0  0  0  0           0  0  0
    6.2667   -3.5167    0.0000 C   0  0  0  0  0  0           0  0  0
    0.6167   -5.6875    0.0000 C   0  0  0  0  0  0           0  0  0
    3.4667   -4.0375    0.0000 C   0  0  0  0  0  0           0  0  0
   10.6167   -5.6875    0.0000 C   0  0  0  0  0  0           0  0  0
    9.9000   -4.4542    0.0000 C   0  0  0  0  0  0           0  0  0
    6.2792   -9.7375    0.0000 C   0  0  0  0  0  0           0  0  0
    4.9042   -3.9417    0.0000 C   0  0  0  0  0  0           0  0  0
    6.9917   -9.3292    0.0000 C   0  0  0  0  0  0           0  0  0
    5.4667   -3.3292    0.0000 C   0  0  0  0  0  0           0  0  0
   10.6125   -4.0375    0.0000 C   0  0  0  0  0  0           0  0  0
   11.3292   -5.2792    0.0000 C   0  0  0  0  0  0           0  0  0
   11.3292   -4.4417    0.0000 C   0  0  0  0  0  0           0  0  0
  2  4  1  0     0  0
  3  1  1  0     0  0
  4 14  1  0     0  0
  5  1  1  0     0  0
  6  3  1  0     0  0
  7 13  1  0     0  0
  8  7  1  0     0  0
  9  5  1  0     0  0
 10  4  2  0     0  0
 11  1  1  0     0  0
 12  2  1  0     0  0
 13  9  1  0     0  0
  9 14  1  1     0  0
 15  3  1  0     0  0
 16  6  1  0     0  0
 17 10  1  0     0  0
 18  2  1  0     0  0
 19  8  1  0     0  0
 20 11  1  0     0  0
 21 19  1  0     0  0
 22  5  2  0     0  0
 23  6  2  0     0  0
 24  7  2  0     0  0
 25 16  1  0     0  0
 26 18  2  0     0  0
 27  8  1  0     0  0
 28 21  2  0     0  0
 29 25  1  0     0  0
 30 27  1  0     0  0
 31 16  1  0     0  0
 32 12  1  0     0  0
 33 11  1  0     0  0
 34 17  1  0     0  0
 35 18  1  0     0  0
 36 20  1  0     0  0
 37 21  1  0     0  0
 38 27  1  0     0  0
 39 29  2  0     0  0
 40 29  1  0     0  0
 41 32  2  0     0  0
 42 33  1  0     0  0
 43 34  2  0     0  0
 44 42  1  0     0  0
 45 40  2  0     0  0
 46 39  1  0     0  0
 47 45  1  0     0  0
 15 20  1  0     0  0
 44 36  1  0     0  0
 12 17  2  0     0  0
 43 41  1  0     0  0
 47 46  2  0     0  0
M  END