
          11280715162D 1   1.00000     0.00000     0

 21 23  0     0  0            999 V2000
    1.6417   -1.9375    0.0000 N   0  0  3  0  0  0           0  0  0
    2.0917   -1.2500    0.0000 C   0  0  3  0  0  0           0  0  0
    0.8167   -1.9875    0.0000 C   0  0  0  0  0  0           0  0  0
    2.9167   -1.2875    0.0000 C   0  0  0  0  0  0           0  0  0
    3.7417   -1.3250    0.0000 C   0  0  0  0  0  0           0  0  0
    5.0167   -0.6750    0.0000 N   0  0  3  0  0  0           0  0  0
    0.2917   -1.3500    0.0000 O   0  0  0  0  0  0           0  0  0
    1.7167   -0.5125    0.0000 C   0  0  0  0  0  0           0  0  0
    4.5667   -1.3667    0.0000 C   0  0  0  0  0  0           0  0  0
    1.9417   -2.7125    0.0000 C   0  0  0  0  0  0           0  0  0
    0.6167   -2.7792    0.0000 C   0  0  0  0  0  0           0  0  0
    1.3042   -3.2292    0.0000 C   0  0  0  0  0  0           0  0  0
    4.7167    0.0875    0.0000 C   0  0  0  0  0  0           0  0  0
    5.8292   -0.6375    0.0000 C   0  0  0  0  0  0           0  0  0
    2.1667    0.1750    0.0000 C   0  0  0  0  0  0           0  0  0
    0.8917   -0.4750    0.0000 C   0  0  0  0  0  0           0  0  0
    6.0417    0.1625    0.0000 C   0  0  0  0  0  0           0  0  0
    5.3542    0.6125    0.0000 C   0  0  0  0  0  0           0  0  0
    0.5167    0.2500    0.0000 C   0  0  0  0  0  0           0  0  0
    1.7917    0.9125    0.0000 C   0  0  0  0  0  0           0  0  0
    0.9667    0.9500    0.0000 C   0  0  0  0  0  0           0  0  0
  2  1  1  0     0  0
  3  1  1  0     0  0
  4  2  1  0     0  0
  5  4  3  0     0  0
  6  9  1  0     0  0
  7  3  2  0     0  0
  8  2  1  0     0  0
  9  5  1  0     0  0
 10  1  1  0     0  0
 11  3  1  0     0  0
 12 10  1  0     0  0
 13  6  1  0     0  0
 14  6  1  0     0  0
 15  8  2  0     0  0
 16  8  1  0     0  0
 17 14  1  0     0  0
 18 13  1  0     0  0
 19 16  2  0     0  0
 20 15  1  0     0  0
 21 19  1  0     0  0
 11 12  1  0     0  0
 20 21  2  0     0  0
 17 18  1  0     0  0
M  END