
          11280715152D 1   1.00000     0.00000     0

 11 10  0     0  0            999 V2000
    3.8667   -4.9042    0.0000 P   0  0  3  0  0  0           0  0  0
    4.5792   -4.4917    0.0000 C   0  0  0  0  0  0           0  0  0
    5.2917   -4.9042    0.0000 N   0  0  3  0  0  0           0  0  0
    6.0125   -4.4917    0.0000 C   0  0  0  0  0  0           0  0  0
    6.7250   -4.9042    0.0000 C   0  0  0  0  0  0           0  0  0
    3.8667   -4.0792    0.0000 O   0  0  0  0  0  0           0  0  0
    6.7250   -5.7292    0.0000 O   0  0  0  0  0  0           0  0  0
    3.0417   -4.9042    0.0000 O   0  0  0  0  0  0           0  0  0
    3.8667   -5.7292    0.0000 O   0  0  0  0  0  0           0  0  0
    5.2917   -5.7292    0.0000 N   0  0  0  0  0  0           0  0  0
    7.4417   -4.4917    0.0000 O   0  0  0  0  0  0           0  0  0
  2  1  1  0     0  0
  3  2  1  0     0  0
  4  3  1  0     0  0
  5  4  1  0     0  0
  6  1  2  0     0  0
  7  5  2  0     0  0
  8  1  1  0     0  0
  9  1  1  0     0  0
 10  3  1  0     0  0
 11  5  1  0     0  0
M  END