
  CDK    9/16/09,9:59

 25 27  0  0  0  0  0  0  0  0999 V2000
    9.5277  -24.8041    0.0000 C   0  0  0  0  0  0  0  0  0  0  0  0
    9.5266  -25.6315    0.0000 C   0  0  0  0  0  0  0  0  0  0  0  0
   10.2414  -26.0444    0.0000 C   0  0  0  0  0  0  0  0  0  0  0  0
   10.2396  -24.3914    0.0000 C   0  0  0  0  0  0  0  0  0  0  0  0
   10.9550  -24.8005    0.0000 C   0  0  0  0  0  0  0  0  0  0  0  0
   10.9557  -25.6273    0.0000 C   0  0  0  0  0  0  0  0  0  0  0  0
   11.6710  -26.0383    0.0000 N   0  0  0  0  0  0  0  0  0  0  0  0
   12.3861  -25.6235    0.0000 C   0  0  0  0  0  0  0  0  0  0  0  0
   12.3813  -24.7936    0.0000 C   0  0  0  0  0  0  0  0  0  0  0  0
   11.6654  -24.3863    0.0000 C   0  0  0  0  0  0  0  0  0  0  0  0
   11.6610  -23.5614    0.0000 N   0  0  0  0  0  0  0  0  0  0  0  0
   12.3733  -23.1451    0.0000 C   0  0  0  0  0  0  0  0  0  0  0  0
   12.3689  -22.3201    0.0000 N   0  0  0  0  0  0  0  0  0  0  0  0
   13.0900  -23.5538    0.0000 O   0  0  0  0  0  0  0  0  0  0  0  0
   13.0812  -21.9038    0.0000 C   0  0  0  0  0  0  0  0  0  0  0  0
   13.7931  -22.3153    0.0000 C   0  0  0  0  0  0  0  0  0  0  0  0
   13.7793  -20.6654    0.0000 C   0  0  0  0  0  0  0  0  0  0  0  0
   13.0705  -21.0833    0.0000 C   0  0  0  0  0  0  0  0  0  0  0  0
   14.5010  -21.0739    0.0000 C   0  0  0  0  0  0  0  0  0  0  0  0
   14.5092  -21.8989    0.0000 C   0  0  0  0  0  0  0  0  0  0  0  0
   15.2116  -20.6548    0.0000 N   0  0  0  0  0  0  0  0  0  0  0  0
   15.9298  -21.0607    0.0000 C   0  0  0  0  0  0  0  0  0  0  0  0
   15.2040  -19.8298    0.0000 C   0  0  0  0  0  0  0  0  0  0  0  0
   10.2371  -23.5664    0.0000 F   0  0  0  0  0  0  0  0  0  0  0  0
   10.2433  -26.8694    0.0000 F   0  0  0  0  0  0  0  0  0  0  0  0
 11 12  1  0  0  0  0 
  5  6  1  0  0  0  0 
 12 13  1  0  0  0  0 
  3  6  2  0  0  0  0 
 12 14  2  0  0  0  0 
  6  7  1  0  0  0  0 
 13 15  1  0  0  0  0 
  1  2  2  0  0  0  0 
 15 16  2  0  0  0  0 
 16 20  1  0  0  0  0 
  7  8  2  0  0  0  0 
 19 17  1  0  0  0  0 
  5  4  2  0  0  0  0 
 17 18  2  0  0  0  0 
 18 15  1  0  0  0  0 
 19 20  2  0  0  0  0 
  8  9  1  0  0  0  0 
  4  1  1  0  0  0  0 
  9 10  2  0  0  0  0 
 19 21  1  0  0  0  0 
 10  5  1  0  0  0  0 
 21 22  1  0  0  0  0 
 21 23  1  0  0  0  0 
 10 11  1  0  0  0  0 
  4 24  1  0  0  0  0 
  2  3  1  0  0  0  0 
  3 25  1  0  0  0  0 
M  END