
  SciTegic01161211252D

 33 36  0  0  0  0            999 V2000
   16.5088  -15.1380    0.0000 O   0  0
   15.7767  -15.5181    0.0000 S   0  0
   16.4740  -15.9629    0.0000 O   0  0
   16.5125  -13.4678    0.0000 N   0  0
   17.1727  -12.9700    0.0000 C   0  0
   16.9078  -12.1887    0.0000 C   0  0  1  0  0  0
   16.0802  -12.2021    0.0000 C   0  0
   15.8384  -12.9912    0.0000 N   0  0
   15.6528  -11.4939    0.0000 C   0  0
   16.0557  -10.7749    0.0000 C   0  0
   15.6285  -10.0680    0.0000 C   0  0
   14.8026  -10.0831    0.0000 C   0  0
   14.4057  -10.8108    0.0000 C   0  0
   14.8312  -11.5147    0.0000 C   0  0
   17.3447  -11.4919    0.0000 C   0  0
   18.1704  -11.5262    0.0000 C   0  0
   18.6097  -10.8268    0.0000 C   0  0
   18.2203  -10.0967    0.0000 C   0  0
   17.3912  -10.0703    0.0000 C   0  0
   16.9598  -10.7705    0.0000 C   0  0
   16.5251  -14.2929    0.0000 C   0  0
   15.8047  -14.6947    0.0000 N   0  0
   15.0497  -15.9107    0.0000 N   0  0
   14.3528  -15.4733    0.0000 C   0  0
   13.6281  -15.8624    0.0000 C   0  0
   13.5989  -16.6868    0.0000 C   0  0
   14.3005  -17.1207    0.0000 C   0  0
   15.0313  -16.7343    0.0000 C   0  0
   14.3771   -9.3810    0.0000 Cl  0  0
   12.9027  -16.2402    0.0000 F   0  0
   13.5522  -17.5041    0.0000 F   0  0
   17.2363  -14.7032    0.0000 N   0  0
   17.9471  -14.2925    0.0000 C   0  0
 16 17  1  0
  3  2  2  0
 17 18  2  0
  9 10  2  0
 18 19  1  0
  4  5  1  0
 19 20  2  0
 20 15  1  0
  6 15  1  1
 10 11  1  0
  4 21  1  0
 21 22  2  0
 22  2  1  0
 11 12  2  0
  2 23  1  0
 23 24  1  0
  5  6  1  0
 12 13  1  0
  6  7  1  0
 13 14  2  0
 14  9  1  0
 23 28  1  0
 24 25  1  0
 25 26  1  0
 26 27  1  0
 27 28  1  0
  7  9  1  0
 12 29  1  0
  7  8  2  0
 26 30  1  0
  8  4  1  0
 26 31  1  0
 15 16  2  0
 21 32  1  0
  2  1  2  0
 32 33  1  0
M  END