
          11280715412D 1   1.00000     0.00000     0

 33 36  0     1  0            999 V2000
   10.1542  -16.6292    0.0000 C   0  0  2  0  0  0           0  0  0
   10.8686  -16.2167    0.0000 C   0  0  0  0  0  0           0  0  0
   11.5831  -16.6292    0.0000 N   0  0  0  0  0  0           0  0  0
   10.8686  -15.3917    0.0000 O   0  0  0  0  0  0           0  0  0
   11.5831  -17.4542    0.0000 C   0  0  0  0  0  0           0  0  0
   12.2976  -17.8667    0.0000 C   0  0  0  0  0  0           0  0  0
   13.0164  -17.4523    0.0000 C   0  0  0  0  0  0           0  0  0
   13.0232  -16.6273    0.0000 C   0  0  0  0  0  0           0  0  0
   13.7410  -16.2207    0.0000 N   0  0  3  0  0  0           0  0  0
   14.4459  -16.6424    0.0000 C   0  0  0  0  0  0           0  0  0
   15.1616  -16.2393    0.0000 C   0  0  0  0  0  0           0  0  0
   15.1726  -15.4140    0.0000 N   0  0  3  0  0  0           0  0  0
   14.4617  -14.9935    0.0000 C   0  0  0  0  0  0           0  0  0
   13.7398  -15.3982    0.0000 C   0  0  0  0  0  0           0  0  0
   15.8920  -15.0101    0.0000 C   0  0  0  0  0  0           0  0  0
   16.5991  -15.4342    0.0000 C   0  0  0  0  0  0           0  0  0
   17.3179  -15.0310    0.0000 C   0  0  0  0  0  0           0  0  0
   17.3283  -14.2051    0.0000 C   0  0  0  0  0  0           0  0  0
   16.6138  -13.7842    0.0000 C   0  0  0  0  0  0           0  0  0
   15.8978  -14.1898    0.0000 C   0  0  0  0  0  0           0  0  0
    9.4399  -16.2145    0.0000 C   0  0  0  0  0  0           0  0  0
    8.7275  -16.6235    0.0000 C   0  0  0  0  0  0           0  0  0
    8.7233  -17.4488    0.0000 C   0  0  2  0  0  0           0  0  0
    9.4376  -17.8635    0.0000 C   0  0  0  0  0  0           0  0  0
   10.1561  -17.4529    0.0000 C   0  0  0  0  0  0           0  0  0
    8.0077  -17.8585    0.0000 C   0  0  0  0  0  0           0  0  0
    7.2945  -17.4415    0.0000 C   0  0  0  0  0  0           0  0  0
    6.5789  -17.8507    0.0000 C   0  0  0  0  0  0           0  0  0
    6.5754  -18.6765    0.0000 C   0  0  0  0  0  0           0  0  0
    7.2933  -19.0916    0.0000 C   0  0  0  0  0  0           0  0  0
    8.0059  -18.6801    0.0000 C   0  0  0  0  0  0           0  0  0
   16.5840  -16.2563    0.0000 O   0  0  0  0  0  0           0  0  0
   17.2924  -16.6791    0.0000 C   0  0  0  0  0  0           0  0  0
 16 17  1  0     0  0
  8  9  1  0     0  0
 17 18  2  0     0  0
  9 10  1  0     0  0
 18 19  1  0     0  0
  3  5  1  0     0  0
 19 20  2  0     0  0
 20 15  1  0     0  0
  1 21  1  0     0  0
  2  3  1  0     0  0
  5  6  1  0     0  0
  1  2  1  1     0  0
  6  7  1  0     0  0
  9 14  1  0     0  0
  1 25  1  0     0  0
 21 22  1  0     0  0
 22 23  1  0     0  0
 23 24  1  0     0  0
 24 25  1  0     0  0
 10 11  1  0     0  0
 11 12  1  0     0  0
 26 27  2  0     0  0
 12 13  1  0     0  0
 27 28  1  0     0  0
 13 14  1  0     0  0
 28 29  2  0     0  0
  2  4  2  0     0  0
 29 30  1  0     0  0
 12 15  1  0     0  0
 30 31  2  0     0  0
 31 26  1  0     0  0
 23 26  1  6     0  0
  7  8  1  0     0  0
 15 16  2  0     0  0
 32 33  1  0     0  0
 16 32  1  0     0  0
M  END