
  SciTegic01181116592D

 27 29  0  0  0  0            999 V2000
   13.1444  -11.5000    0.0000 C   0  0
   13.1432  -12.3273    0.0000 C   0  0
   13.8581  -12.7402    0.0000 C   0  0
   14.5745  -12.3269    0.0000 C   0  0
   14.5716  -11.4963    0.0000 C   0  0
   13.8563  -11.0872    0.0000 C   0  0
   12.4285  -12.7393    0.0000 Cl  0  0
   15.2846  -11.0811    0.0000 C   0  0
   16.0006  -11.4909    0.0000 C   0  0
   15.2814  -10.2561    0.0000 O   0  0
   13.8579  -13.5652    0.0000 S   0  0
   14.5722  -13.9779    0.0000 N   0  0
   13.0542  -13.3458    0.0000 O   0  0
   13.2667  -14.1458    0.0000 O   0  0
   16.7136  -11.0756    0.0000 N   0  0
   17.4584   -9.9725    0.0000 N   0  0
   16.6831  -10.2541    0.0000 C   0  0
   17.9661  -10.6229    0.0000 C   0  0
   17.5033  -11.3050    0.0000 C   0  0
   17.8628  -12.0447    0.0000 C   0  0
   18.6847  -12.1034    0.0000 C   0  0
   19.1458  -11.4165    0.0000 C   0  0
   18.7838  -10.6796    0.0000 C   0  0
   15.9640   -9.8497    0.0000 C   0  0
   15.9548   -9.0248    0.0000 C   0  0
   15.2357   -8.6203    0.0000 C   0  0
   16.6645   -8.6043    0.0000 C   0  0
  1  2  2  0
 11 14  2  0
  2  7  1  0
  9 15  1  0
 15 19  1  0
  3  4  2  0
  5  8  1  0
 18 16  1  0
 16 17  2  0
 17 15  1  0
  8  9  1  0
 18 19  2  0
  4  5  1  0
 19 20  1  0
  8 10  2  0
 20 21  2  0
  2  3  1  0
 21 22  1  0
  3 11  1  0
 22 23  2  0
 23 18  1  0
  5  6  2  0
 17 24  1  0
 11 12  1  0
 24 25  1  0
  6  1  1  0
 25 26  1  0
 11 13  2  0
 25 27  1  0
M  END