
  CDK    9/16/09,9:54

 12 13  0  0  0  0  0  0  0  0999 V2000
   -4.0739    1.9271    0.0000 C   0  0  0  0  0  0  0  0  0  0  0  0
   -4.0739    1.0986    0.0000 C   0  0  0  0  0  0  0  0  0  0  0  0
   -3.3603    0.6866    0.0000 N   0  0  0  0  0  0  0  0  0  0  0  0
   -2.6422    1.0986    0.0000 C   0  0  0  0  0  0  0  0  0  0  0  0
   -2.6422    1.9271    0.0000 C   0  0  0  0  0  0  0  0  0  0  0  0
   -3.3603    2.3436    0.0000 N   0  0  0  0  0  0  0  0  0  0  0  0
   -3.3635   -0.1338    0.0000 C   0  0  0  0  0  0  0  0  0  0  0  0
   -4.0792   -0.5441    0.0000 C   0  0  0  0  0  0  0  0  0  0  0  0
   -4.0808   -1.3673    0.0000 C   0  0  0  0  0  0  0  0  0  0  0  0
   -3.3673   -1.7811    0.0000 C   0  0  0  0  0  0  0  0  0  0  0  0
   -2.6508   -1.3656    0.0000 C   0  0  0  0  0  0  0  0  0  0  0  0
   -2.6527   -0.5439    0.0000 N   0  0  0  0  0  0  0  0  0  0  0  0
  5  6  1  0  0  0  0 
  1  2  1  0  0  0  0 
  7  8  2  0  0  0  0 
  1  6  1  0  0  0  0 
  8  9  1  0  0  0  0 
  2  3  1  0  0  0  0 
  9 10  2  0  0  0  0 
  3  4  1  0  0  0  0 
 10 11  1  0  0  0  0 
  4  5  1  0  0  0  0 
 11 12  2  0  0  0  0 
 12  7  1  0  0  0  0 
  3  7  1  0  0  0  0 
M  END