
  SciTegic08041117222D

 19 20  0  0  0  0            999 V2000
   21.8610  -14.4607    0.0000 N   0  0
   21.8599  -15.2879    0.0000 C   0  0
   22.5742  -15.7007    0.0000 C   0  0
   23.2900  -15.2874    0.0000 C   0  0
   23.2873  -14.4573    0.0000 N   0  0
   22.5726  -14.0480    0.0000 C   0  0
   22.5702  -13.2229    0.0000 N   0  0
   21.1954  -15.7764    0.0000 N   0  0
   23.9554  -15.7753    0.0000 N   0  0
   23.9528  -16.5973    0.0000 C   0  0
   24.7364  -16.8554    0.0000 C   0  0
   25.2240  -16.1898    0.0000 C   0  0  2  0  0  0
   24.7416  -15.5206    0.0000 C   0  0
   26.0489  -16.1930    0.0000 N   0  0
   26.4587  -16.9091    0.0000 C   0  0
   20.4399  -15.4451    0.0000 C   0  0
   19.7752  -15.9337    0.0000 C   0  0
   19.0234  -15.6025    0.0000 C   0  0
   19.8661  -16.7537    0.0000 C   0  0
  9 10  1  0
  4  5  1  0
  2  3  1  0
  5  6  2  0
  6  1  1  0
 10 11  1  0
 11 12  1  0
 12 13  1  0
 13  9  1  0
  1  2  2  0
 12 14  1  6
  6  7  1  0
 14 15  1  0
  3  4  2  0
  8 16  1  0
  2  8  1  0
 16 17  1  0
 17 18  1  0
  4  9  1  0
 17 19  1  0
M  END