
  SciTegic02011310402D

 46 51  0  0  0  0            999 V2000
   -4.8806  -22.3666    0.0000 C   0  0
   -4.8818  -23.1940    0.0000 N   0  0
   -4.1669  -23.6069    0.0000 C   0  0
   -4.1687  -21.9539    0.0000 C   0  0
   -3.4534  -22.3630    0.0000 C   0  0
   -3.4546  -23.1961    0.0000 C   0  0
   -2.7377  -23.6113    0.0000 C   0  0
   -2.0150  -23.1981    0.0000 N   0  0
   -2.0138  -22.3651    0.0000 N   0  0
   -2.7353  -21.9452    0.0000 C   0  0
   -2.7400  -24.4363    0.0000 C   0  0
   -3.4556  -24.8468    0.0000 C   0  0
   -4.1663  -24.4275    0.0000 C   0  0
   -4.8814  -24.8373    0.0000 C   0  0
   -4.8842  -25.6632    0.0000 C   0  0
   -4.1658  -26.0776    0.0000 C   0  0
   -3.4536  -25.6654    0.0000 C   0  0
   -5.5993  -26.0746    0.0000 Cl  0  0
   -2.7352  -21.1202    0.0000 O   0  0
   -1.2983  -21.9543    0.0000 C   0  0
   -0.5849  -22.3686    0.0000 C   0  0  1  0  0  0
   -0.5720  -23.1907    0.0000 C   0  0
    0.2173  -23.4308    0.0000 C   0  0
    0.6896  -22.7542    0.0000 C   0  0
    0.1920  -22.0962    0.0000 N   0  0
    0.2252  -21.2718    0.0000 C   0  0
    0.9556  -20.8883    0.0000 C   0  0
    1.6530  -21.3291    0.0000 C   0  0
    2.3834  -20.9456    0.0000 C   0  0
    3.0808  -21.3864    0.0000 C   0  0
    3.0434  -22.2086    0.0000 C   0  0
    3.7399  -22.6493    0.0000 C   0  0
    4.4713  -22.2658    0.0000 C   0  0
    4.5019  -21.4371    0.0000 C   0  0
    3.8047  -21.0001    0.0000 C   0  0
    5.1693  -22.7057    0.0000 O   0  0
    5.1373  -23.5301    0.0000 C   0  0
    4.4073  -23.9145    0.0000 C   0  0
    4.3753  -24.7389    0.0000 C   0  0
    3.6454  -25.1234    0.0000 N   0  0
    2.9601  -24.6261    0.0000 C   0  0
    2.1857  -24.8521    0.0000 C   0  0
    3.6716  -25.9578    0.0000 C   0  0
    3.0345  -26.4789    0.0000 C   0  0
    2.1948  -26.2980    0.0000 C   0  0
    1.8448  -25.5888    0.0000 C   0  0
  9 10  1  0
  5  6  1  0
  7 11  1  0
 22 23  1  0
 23 24  1  0
 24 25  1  0
 25 21  1  0
 11 12  1  0
 25 26  1  0
  2  3  1  0
 26 27  1  0
 12 13  2  0
 27 28  1  0
  3  6  2  0
 28 29  1  0
 13 14  1  0
 29 30  1  0
  1  2  2  0
 30 31  2  0
 14 15  2  0
 31 32  1  0
  5  4  2  0
 32 33  2  0
 15 16  1  0
 33 34  1  0
  4  1  1  0
 34 35  2  0
 35 30  1  0
 16 17  2  0
 33 36  1  0
 17 12  1  0
 36 37  1  0
  5 10  1  0
 37 38  1  0
 15 18  1  0
 38 39  1  0
  6  7  1  0
 39 40  1  0
 10 19  2  0
  7  8  2  0
  9 20  1  0
  8  9  1  0
 21 20  1  6
 21 22  1  0
 40 41  1  0
 41 42  1  0
 40 43  1  0
 44 45  1  0
 45 46  1  0
 46 42  1  0
 43 44  1  0
M  END