
  SciTegic07111213582D

 20 22  0  0  0  0            999 V2000
   -1.9128   -0.0618    0.0000 C   0  0
   -2.6273   -0.4743    0.0000 C   0  0
   -2.6273   -1.2993    0.0000 C   0  0
   -3.3418   -1.7118    0.0000 O   0  0
   -1.9128   -1.7118    0.0000 C   0  0
   -1.1984   -1.2993    0.0000 C   0  0
   -1.1984   -0.4743    0.0000 C   0  0
   -0.4839   -0.0618    0.0000 C   0  0
    0.2306   -0.4743    0.0000 O   0  0
   -0.4839    0.7632    0.0000 C   0  0
    0.2306    1.1757    0.0000 C   0  0
    0.2306    2.0007    0.0000 O   0  0
    0.9450    0.7632    0.0000 C   0  0
    0.9450   -0.0618    0.0000 C   0  0
    1.6595   -0.4743    0.0000 C   0  0
    2.3740   -0.0618    0.0000 C   0  0
    3.0884   -0.4743    0.0000 O   0  0
    2.3740    0.7632    0.0000 C   0  0
    1.6595    1.1757    0.0000 C   0  0
    1.6595    2.0007    0.0000 O   0  0
  2  1  2  0
  1  7  1  0
  2  3  1  0
  3  4  1  0
  5  3  2  0
  5  6  1  0
  6  7  2  0
  7  8  1  0
  8  9  1  0
 10  8  2  0
 14  9  1  0
 10 11  1  0
 11 12  2  0
 11 13  1  0
 14 13  2  0
 19 13  1  0
 15 14  1  0
 15 16  2  0
 16 17  1  0
 18 16  1  0
 18 19  2  0
 19 20  1  0
M  END