
          11280715142D 1   1.00000     0.00000     0

 31 34  0     0  0            999 V2000
    2.3292   -4.5917    0.0000 C   0  0  0  0  0  0           0  0  0
    1.5292   -4.7667    0.0000 C   0  0  0  0  0  0           0  0  0
    5.0500   -5.4917    0.0000 N   0  0  3  0  0  0           0  0  0
    6.6625   -5.1792    0.0000 N   0  0  3  0  0  0           0  0  0
    2.8792   -5.2167    0.0000 C   0  0  3  0  0  0           0  0  0
    1.2667   -5.5417    0.0000 C   0  0  0  0  0  0           0  0  0
    8.8125   -3.2917    0.0000 C   0  0  0  0  0  0           0  0  0
    9.6250   -3.1292    0.0000 C   0  0  0  0  0  0           0  0  0
    2.5917   -3.8042    0.0000 O   0  0  0  0  0  0           0  0  0
    8.2667   -2.6667    0.0000 O   0  0  0  0  0  0           0  0  0
    1.8167   -6.1667    0.0000 C   0  0  0  0  0  0           0  0  0
    2.6250   -5.9917    0.0000 C   0  0  0  0  0  0           0  0  0
    3.6917   -5.0417    0.0000 C   0  0  0  0  0  0           0  0  0
   10.1625   -3.7542    0.0000 C   0  0  0  0  0  0           0  0  0
    9.8792   -2.3542    0.0000 C   0  0  0  0  0  0           0  0  0
    4.2417   -5.6542    0.0000 C   0  0  0  0  0  0           0  0  0
    5.5875   -6.1167    0.0000 C   0  0  0  0  0  0           0  0  0
    5.3042   -4.7167    0.0000 C   0  0  0  0  0  0           0  0  0
    6.1167   -4.5542    0.0000 C   0  0  0  0  0  0           0  0  0
    6.3917   -5.9542    0.0000 C   0  0  0  0  0  0           0  0  0
   11.2375   -2.8167    0.0000 C   0  0  0  0  0  0           0  0  0
   10.9667   -3.5917    0.0000 C   0  0  0  0  0  0           0  0  0
   10.6875   -2.1917    0.0000 C   0  0  0  0  0  0           0  0  0
   12.0417   -2.6542    0.0000 F   0  0  0  0  0  0           0  0  0
    7.4667   -5.0167    0.0000 C   0  0  0  0  0  0           0  0  0
    0.9792   -4.1542    0.0000 C   0  0  0  0  0  0           0  0  0
    7.7375   -4.2292    0.0000 C   0  0  0  0  0  0           0  0  0
    8.5417   -4.0792    0.0000 C   0  0  0  0  0  0           0  0  0
    0.4667   -5.7167    0.0000 C   0  0  0  0  0  0           0  0  0
    0.1792   -4.3167    0.0000 C   0  0  0  0  0  0           0  0  0
   -0.0833   -5.1042    0.0000 C   0  0  0  0  0  0           0  0  0
  2  1  1  0     0  0
  3 16  1  0     0  0
  4 19  1  0     0  0
  5  1  1  0     0  0
  6  2  1  0     0  0
  7 28  1  0     0  0
  8  7  1  0     0  0
  9  1  2  0     0  0
 10  7  2  0     0  0
 11 12  1  0     0  0
 12  5  1  0     0  0
 13  5  1  0     0  0
 14  8  2  0     0  0
 15  8  1  0     0  0
 16 13  1  0     0  0
 17  3  1  0     0  0
 18  3  1  0     0  0
 19 18  1  0     0  0
 20 17  1  0     0  0
 21 23  1  0     0  0
 22 14  1  0     0  0
 23 15  2  0     0  0
 24 21  1  0     0  0
 25  4  1  0     0  0
 26  2  2  0     0  0
 27 25  1  0     0  0
 28 27  1  0     0  0
 29  6  2  0     0  0
 30 26  1  0     0  0
 31 30  2  0     0  0
  6 11  1  0     0  0
 29 31  1  0     0  0
  4 20  1  0     0  0
 21 22  2  0     0  0
M  END