
          11280715062D 1   1.00000     0.00000     0

 15 16  0     0  0            999 V2000
    1.3292   -4.5417    0.0000 C   0  0  0  0  0  0           0  0  0
    1.7042   -5.1542    0.0000 N   0  0  3  0  0  0           0  0  0
    0.6125   -4.5542    0.0000 N   0  0  0  0  0  0           0  0  0
    2.8042   -5.7542    0.0000 C   0  0  0  0  0  0           0  0  0
    3.1750   -6.3667    0.0000 C   0  0  0  0  0  0           0  0  0
    4.2750   -6.9667    0.0000 N   0  0  3  0  0  0           0  0  0
    1.6792   -3.9042    0.0000 O   0  0  0  0  0  0           0  0  0
    2.4292   -5.1375    0.0000 C   0  0  0  0  0  0           0  0  0
    3.5500   -6.9917    0.0000 C   0  0  0  0  0  0           0  0  0
    0.6375   -5.8000    0.0000 C   0  0  0  0  0  0           0  0  0
    1.3542   -5.7792    0.0000 C   0  0  0  0  0  0           0  0  0
    4.6042   -7.7167    0.0000 C   0  0  0  0  0  0           0  0  0
    4.8917   -6.4250    0.0000 C   0  0  0  0  0  0           0  0  0
    5.6042   -6.8375    0.0000 C   0  0  0  0  0  0           0  0  0
    5.4375   -7.6292    0.0000 C   0  0  0  0  0  0           0  0  0
  2  1  1  0     0  0
  3  1  1  0     0  0
  4  8  1  0     0  0
  5  4  3  0     0  0
  6  9  1  0     0  0
  7  1  2  0     0  0
  8  2  1  0     0  0
  9  5  1  0     0  0
 10  3  1  0     0  0
 11  2  1  0     0  0
 12  6  1  0     0  0
 13  6  1  0     0  0
 14 13  1  0     0  0
 15 12  1  0     0  0
 11 10  1  0     0  0
 14 15  1  0     0  0
M  END