
          11280715372D 1   1.00000     0.00000     0

 35 38  0     0  0            999 V2000
    5.8042   -6.7875    0.0000 C   0  0  0  0  0  0           0  0  0
    5.8042   -7.6667    0.0000 C   0  0  0  0  0  0           0  0  0
    4.2792   -6.7875    0.0000 N   0  0  3  0  0  0           0  0  0
    5.0417   -8.1042    0.0000 N   0  0  3  0  0  0           0  0  0
    4.2792   -7.6667    0.0000 C   0  0  0  0  0  0           0  0  0
    5.0417   -6.3375    0.0000 C   0  0  0  0  0  0           0  0  0
    6.6417   -6.5042    0.0000 N   0  0  0  0  0  0           0  0  0
    6.6542   -7.9375    0.0000 N   0  0  0  0  0  0           0  0  0
    7.1667   -7.2167    0.0000 C   0  0  0  0  0  0           0  0  0
    3.5167   -6.3417    0.0000 C   0  0  0  0  0  0           0  0  0
    8.0542   -7.2167    0.0000 C   0  0  0  0  0  0           0  0  0
    3.5167   -8.1125    0.0000 O   0  0  0  0  0  0           0  0  0
    1.2250   -4.9250    0.0000 C   0  0  0  0  0  0           0  0  0
    5.0417   -5.4542    0.0000 O   0  0  0  0  0  0           0  0  0
   12.0292   -7.9542    0.0000 C   0  0  0  0  0  0           0  0  0
    1.2792   -4.0375    0.0000 C   0  0  0  0  0  0           0  0  0
    1.9542   -5.4125    0.0000 C   0  0  0  0  0  0           0  0  0
    5.0417   -8.9875    0.0000 C   0  0  0  0  0  0           0  0  0
   12.4667   -7.1875    0.0000 O   0  0  0  0  0  0           0  0  0
    8.4917   -7.9792    0.0000 C   0  0  0  0  0  0           0  0  0
    8.4792   -6.4500    0.0000 C   0  0  0  0  0  0           0  0  0
    2.0667   -3.6500    0.0000 C   0  0  0  0  0  0           0  0  0
   10.7000   -7.2000    0.0000 O   0  0  0  0  0  0           0  0  0
    2.7417   -5.0250    0.0000 C   0  0  0  0  0  0           0  0  0
    3.5125   -5.4625    0.0000 C   0  0  0  0  0  0           0  0  0
   11.1417   -7.9625    0.0000 C   0  0  0  0  0  0           0  0  0
    0.4542   -5.3625    0.0000 I   0  0  0  0  0  0           0  0  0
    9.8167   -7.2042    0.0000 C   0  0  0  0  0  0           0  0  0
    0.5500   -3.5417    0.0000 N   0  0  0  0  0  0           0  0  0
   12.4750   -8.7167    0.0000 O   0  0  0  0  0  0           0  0  0
    2.8042   -4.1417    0.0000 C   0  0  0  0  0  0           0  0  0
    9.3792   -7.9750    0.0000 C   0  0  0  0  0  0           0  0  0
    9.3667   -6.4417    0.0000 C   0  0  0  0  0  0           0  0  0
    4.2750   -9.4292    0.0000 C   0  0  0  0  0  0           0  0  0
    4.2750  -10.3125    0.0000 C   0  0  0  0  0  0           0  0  0
  2  1  2  0     0  0
  3  6  1  0     0  0
  4  2  1  0     0  0
  5  3  1  0     0  0
  6  1  1  0     0  0
  7  1  1  0     0  0
  8  2  1  0     0  0
  9  7  1  0     0  0
 10  3  1  0     0  0
 11  9  1  0     0  0
 12  5  2  0     0  0
 13 17  2  0     0  0
 14  6  2  0     0  0
 15 26  1  0     0  0
 16 22  2  0     0  0
 17 24  1  0     0  0
 18  4  1  0     0  0
 19 15  2  0     0  0
 20 11  2  0     0  0
 21 11  1  0     0  0
 22 31  1  0     0  0
 23 28  1  0     0  0
 24 25  1  0     0  0
 25 10  1  0     0  0
 26 23  1  0     0  0
 27 13  1  0     0  0
 28 33  1  0     0  0
 29 16  1  0     0  0
 30 15  1  0     0  0
 31 24  2  0     0  0
 32 20  1  0     0  0
 33 21  2  0     0  0
 34 18  1  0     0  0
 35 34  1  0     0  0
  8  9  2  0     0  0
  4  5  1  0     0  0
 32 28  2  0     0  0
 16 13  1  0     0  0
M  END