
          11280715142D 1   1.00000     0.00000     0

 63 68  0     1  0            999 V2000
   14.2417   -3.3292    0.0000 O   0  0  0  0  0  0           0  0  0
   -0.9000   -8.4125    0.0000 O   0  0  0  0  0  0           0  0  0
   13.5167   -3.7125    0.0000 C   0  0  2  0  0  0           0  0  0
   14.2792   -2.5042    0.0000 C   0  0  2  0  0  0           0  0  0
   -1.6208   -8.0000    0.0000 C   0  0  2  0  0  0           0  0  0
   13.4917   -4.5375    0.0000 C   0  0  0  0  0  0           0  0  0
   -0.1875   -8.0000    0.0000 C   0  0  1  0  0  0           0  0  0
   13.5792   -2.0625    0.0000 O   0  0  0  0  0  0           0  0  0
   -1.6208   -7.1750    0.0000 O   0  0  0  0  0  0           0  0  0
   17.9042   -0.5542    0.0000 N   0  0  0  0  0  0           0  0  0
   -5.1958  -10.0625    0.0000 N   0  0  0  0  0  0           0  0  0
   12.8167   -3.2750    0.0000 C   0  0  1  0  0  0           0  0  0
   -4.4750   -9.6542    0.0000 C   0  0  0  0  0  0           0  0  0
   17.1917   -0.9750    0.0000 C   0  0  0  0  0  0           0  0  0
   -0.1875   -7.1750    0.0000 C   0  0  1  0  0  0           0  0  0
    0.5250   -8.4125    0.0000 C   0  0  0  0  0  0           0  0  0
   15.0042   -2.1250    0.0000 C   0  0  0  0  0  0           0  0  0
   -2.3333   -8.4125    0.0000 C   0  0  0  0  0  0           0  0  0
    9.8167   -5.5375    0.0000 C   0  0  0  0  0  0           0  0  0
    4.1000   -7.1750    0.0000 C   0  0  0  0  0  0           0  0  0
   14.1917   -4.9750    0.0000 C   0  0  0  0  0  0           0  0  0
   12.8542   -2.4500    0.0000 C   0  0  0  0  0  0           0  0  0
   -0.9083   -6.7625    0.0000 C   0  0  0  0  0  0           0  0  0
    1.2292   -9.6500    0.0000 N   0  0  0  0  0  0           0  0  0
    4.1000   -8.0000    0.0000 O   0  0  0  0  0  0           0  0  0
   10.5167   -5.9750    0.0000 O   0  0  0  0  0  0           0  0  0
   15.0417   -1.3000    0.0000 C   0  0  0  0  0  0           0  0  0
   -2.3333   -9.2417    0.0000 C   0  0  0  0  0  0           0  0  0
   15.7042   -2.5667    0.0000 C   0  0  0  0  0  0           0  0  0
   -3.0458   -8.0000    0.0000 C   0  0  0  0  0  0           0  0  0
    1.2417   -7.1750    0.0000 C   0  0  0  0  0  0           0  0  0
   11.3375   -3.1250    0.0000 C   0  0  0  0  0  0           0  0  0
    1.9500   -7.2042    0.0000 C   0  0  0  0  0  0           0  0  0
   10.6042   -3.5042    0.0000 C   0  0  0  0  0  0           0  0  0
   -3.7583   -9.2417    0.0000 C   0  0  0  0  0  0           0  0  0
   16.4667   -1.3542    0.0000 C   0  0  0  0  0  0           0  0  0
    4.8125   -6.7625    0.0000 N   0  0  0  0  0  0           0  0  0
    9.0917   -5.9250    0.0000 N   0  0  0  0  0  0           0  0  0
   -3.0458   -9.6542    0.0000 C   0  0  0  0  0  0           0  0  0
   15.7667   -0.9167    0.0000 C   0  0  0  0  0  0           0  0  0
   -3.7583   -8.4167    0.0000 C   0  0  0  0  0  0           0  0  0
   16.4417   -2.1792    0.0000 C   0  0  0  0  0  0           0  0  0
    0.5167   -9.2375    0.0000 C   0  0  0  0  0  0           0  0  0
   14.9167   -4.5875    0.0000 O   0  0  0  0  0  0           0  0  0
   12.7667   -4.9167    0.0000 C   0  0  0  0  0  0           0  0  0
   12.0625   -3.5792    0.0000 C   0  0  0  0  0  0           0  0  0
    0.5250   -6.7625    0.0000 C   0  0  0  0  0  0           0  0  0
    3.3792   -6.7625    0.0000 C   0  0  0  0  0  0           0  0  0
    9.8500   -4.7167    0.0000 C   0  0  0  0  0  0           0  0  0
    1.2292   -8.0000    0.0000 C   0  0  0  0  0  0           0  0  0
    1.9500   -9.2375    0.0000 C   0  0  0  0  0  0           0  0  0
   10.5792   -4.3292    0.0000 C   0  0  0  0  0  0           0  0  0
    2.5042   -6.6417    0.0000 C   0  0  0  0  0  0           0  0  0
   14.1667   -5.8000    0.0000 C   0  0  0  0  0  0           0  0  0
    5.5292   -7.1750    0.0000 C   0  0  0  0  0  0           0  0  0
    9.0917   -6.7542    0.0000 C   0  0  0  0  0  0           0  0  0
    8.3792   -7.1667    0.0000 C   0  0  0  0  0  0           0  0  0
    6.2375   -6.7625    0.0000 C   0  0  0  0  0  0           0  0  0
    1.9417   -8.4125    0.0000 C   0  0  0  0  0  0           0  0  0
    6.9542   -7.1750    0.0000 C   0  0  0  0  0  0           0  0  0
    7.6667   -6.7625    0.0000 C   0  0  0  0  0  0           0  0  0
   12.7292   -5.7375    0.0000 C   0  0  0  0  0  0           0  0  0
   13.4292   -6.1792    0.0000 C   0  0  0  0  0  0           0  0  0
  2  7  1  0     0  0
  3  1  1  0     0  0
  4  1  1  0     0  0
  5  9  1  0     0  0
  3  6  1  6     0  0
  7 15  1  0     0  0
  8  4  1  0     0  0
  9 23  1  0     0  0
 10 14  3  0     0  0
 11 13  3  0     0  0
 12  3  1  0     0  0
 13 35  1  0     0  0
 14 36  1  0     0  0
 15 47  1  1     0  0
  7 16  1  1     0  0
  4 17  1  6     0  0
  5 18  1  1     0  0
 19 49  1  0     0  0
 20 37  1  0     0  0
 21  6  2  0     0  0
 22  8  1  0     0  0
 23 15  1  0     0  0
 24 43  1  0     0  0
 25 20  2  0     0  0
 26 19  2  0     0  0
 27 17  2  0     0  0
 28 18  1  0     0  0
 29 17  1  0     0  0
 30 18  2  0     0  0
 31 33  2  0     0  0
 32 46  1  0     0  0
 33 53  1  0     0  0
 34 32  2  0     0  0
 35 41  2  0     0  0
 36 42  1  0     0  0
 37 55  1  0     0  0
 38 19  1  0     0  0
 39 28  2  0     0  0
 40 27  1  0     0  0
 41 30  1  0     0  0
 42 29  2  0     0  0
 43 16  2  0     0  0
 44 21  1  0     0  0
 45  6  1  0     0  0
 12 46  1  6     0  0
 47 31  1  0     0  0
 48 20  1  0     0  0
 49 52  1  0     0  0
 50 16  1  0     0  0
 51 59  1  0     0  0
 52 34  1  0     0  0
 53 48  1  0     0  0
 54 21  1  0     0  0
 55 58  1  0     0  0
 56 38  1  0     0  0
 57 56  1  0     0  0
 58 60  1  0     0  0
 59 50  2  0     0  0
 60 61  1  0     0  0
 61 57  1  0     0  0
 62 45  2  0     0  0
 63 62  1  0     0  0
 12 22  1  0     0  0
 40 36  2  0     0  0
 54 63  2  0     0  0
  5  2  1  0     0  0
 24 51  2  0     0  0
 35 39  1  0     0  0
M  END