
  SciTegic10301317112D

 29 29  0  0  0  0            999 V2000
    1.4154   -2.5302    0.0000 S   0  0
    9.8245   -5.1732    0.0000 C   0  0  1  0  0  0
    4.7139   -2.5177    0.0000 C   0  0
   10.2379   -5.8872    0.0000 C   0  0
    8.9978   -5.1774    0.0000 N   0  0
    2.2421   -2.5302    0.0000 C   0  0
    8.5093   -4.5135    0.0000 C   0  0
    5.1273   -3.2317    0.0000 N   0  0
    1.4071   -3.3569    0.0000 O   0  0
    1.4154   -1.7035    0.0000 O   0  0
    6.3757   -3.9373    0.0000 C   0  0
   10.2253   -4.4509    0.0000 C   0  0
    3.8872   -2.5219    0.0000 C   0  0
    0.5887   -2.5219    0.0000 N   0  0
    7.2024   -3.9331    0.0000 N   0  0
    5.1231   -1.7954    0.0000 O   0  0
    9.8328   -6.6054    0.0000 O   0  0
    8.8475   -3.7578    0.0000 O   0  0
    5.9665   -4.6513    0.0000 O   0  0
    2.6430   -1.8163    0.0000 C   0  0
    2.6555   -3.2442    0.0000 C   0  0
    3.4739   -3.2359    0.0000 C   0  0
    3.4614   -1.8079    0.0000 C   0  0
    5.9540   -3.2234    0.0000 C   0  0
    7.6909   -4.6012    0.0000 C   0  0
   11.0646   -5.8789    0.0000 O   0  0
   10.8224   -5.0354    0.0000 C   0  0
   11.0604   -4.4509    0.0000 C   0  0
    9.8120   -3.7369    0.0000 C   0  0
  2  5  1  0
  3 13  1  0
  4  2  1  0
  5  7  1  0
  6  1  1  0
  7 25  1  0
  8  3  1  0
  9  1  2  0
 10  1  2  0
 11 24  1  0
  2 12  1  1
 13 22  2  0
 14  1  1  0
 15 11  1  0
 16  3  2  0
 17  4  2  0
 18  7  2  0
 19 11  2  0
 20  6  1  0
 21  6  2  0
 22 21  1  0
 23 20  2  0
 24  8  1  0
 25 15  1  0
 26  4  1  0
 27 12  1  0
 28 12  1  0
 29 12  1  0
 13 23  1  0
M  END