
  SciTegic01161211222D

 21 24  0  0  0  0            999 V2000
    9.2126  -20.2145    0.0000 C   0  0
    9.2115  -21.0393    0.0000 C   0  0
    9.9242  -21.4510    0.0000 C   0  0
    9.9224  -19.8029    0.0000 C   0  0
   10.6357  -20.2108    0.0000 C   0  0
   10.6390  -21.0414    0.0000 C   0  0
   11.3561  -21.4515    0.0000 N   0  0
   12.0743  -21.0355    0.0000 C   0  0
   11.3492  -19.7902    0.0000 N   0  0
   12.0714  -20.2069    0.0000 C   0  0
   12.6908  -19.6488    0.0000 C   0  0
   12.3514  -18.8873    0.0000 C   0  0
   11.5223  -18.9748    0.0000 C   0  0
   12.7876  -21.4451    0.0000 N   0  0
   12.7866  -22.2721    0.0000 C   0  0
   13.4959  -22.6816    0.0000 C   0  0
   14.2097  -22.2720    0.0000 N   0  0
   14.2097  -21.4486    0.0000 C   0  0
   13.4959  -21.0345    0.0000 C   0  0
   14.9214  -22.6843    0.0000 C   0  0
    9.9199  -18.9804    0.0000 F   0  0
  4  1  1  0
  5  6  1  0
  2  3  1  0
 10 11  2  0
 11 12  1  0
 12 13  2  0
 13  9  1  0
  3  6  2  0
  8 14  1  0
 14 15  1  0
  1  2  2  0
  5  9  1  0
  6  7  1  0
  7  8  2  0
  8 10  1  0
 14 19  1  0
 15 16  1  0
 16 17  1  0
 17 18  1  0
 18 19  1  0
  9 10  1  0
 17 20  1  0
  5  4  2  0
  4 21  1  0
M  END