
  SciTegic09261414552D

 35 39  0  0  0  0            999 V2000
    9.2646   -5.6828    0.0000 C   0  0
    8.9440   -4.9209    0.0000 C   0  0
    8.7630   -6.3376    0.0000 O   0  0
   10.0810   -5.7883    0.0000 N   0  0
    8.1276   -4.8153    0.0000 N   0  0
    7.7314   -4.0918    0.0000 N   0  0
    6.9216   -4.2467    0.0000 N   0  0
    6.8161   -5.0632    0.0000 C   0  0
    7.5629   -5.4177    0.0000 C   0  0
    6.0925   -5.4594    0.0000 C   0  0
    5.3852   -5.0353    0.0000 C   0  0
    4.6617   -5.4316    0.0000 N   0  0
    4.6417   -6.2539    0.0000 C   0  0
    5.3474   -6.6837    0.0000 C   0  0
    6.0709   -6.2874    0.0000 C   0  0
    3.1770   -6.2973    0.0000 C   0  0
    2.6104   -6.8960    0.0000 N   0  0
    3.0066   -7.6196    0.0000 C   0  0
    3.8183   -7.4683    0.0000 C   0  0
    3.9181   -6.6502    0.0000 N   0  0
   11.4065   -5.1479    0.0000 N   0  0
   11.6799   -4.3724    0.0000 N   0  0
   11.0251   -3.8709    0.0000 C   0  0
   10.3446   -4.3402    0.0000 C   0  0
   10.5805   -5.1299    0.0000 C   0  0
   11.8759   -5.8284    0.0000 C   0  0
   11.5250   -6.5731    0.0000 C   0  0
   11.9944   -7.2537    0.0000 N   0  0
   12.8162   -7.1837    0.0000 C   0  0
   13.1671   -6.4390    0.0000 C   0  0
   12.6997   -5.7621    0.0000 C   0  0
   11.0431   -3.0449    0.0000 C   0  0
   11.7663   -2.6481    0.0000 C   0  0
   10.3378   -2.6170    0.0000 C   0  0
   11.0370   -2.2166    0.0000 C   0  0
  1  2  1  0
  1  3  2  0
  1  4  1  0
  5  6  1  0
  6  7  2  0
  7  8  1  0
  8  9  2  0
  5  9  1  0
 10 11  1  0
 11 12  2  0
 12 13  1  0
 13 14  2  0
 14 15  1  0
 10 15  2  0
 16 17  2  0
 17 18  1  0
 18 19  2  0
 19 20  1  0
 16 20  1  0
 13 20  1  0
  8 10  1  0
  2  5  1  0
 21 22  1  0
 22 23  2  0
 23 24  1  0
 24 25  2  0
 21 25  1  0
 26 27  1  0
 27 28  2  0
 28 29  1  0
 29 30  2  0
 30 31  1  0
 26 31  2  0
 21 26  1  0
 23 32  1  0
  4 25  1  0
 32 33  1  0
 32 34  1  0
 32 35  1  0
M  END