
  SciTegic05071317012D

 34 37  0  0  0  0            999 V2000
   23.3958   -3.2481    0.0000 C   0  0
   23.3947   -4.0676    0.0000 C   0  0
   24.1027   -4.4766    0.0000 C   0  0
   24.1010   -2.8392    0.0000 C   0  0
   24.8096   -3.2445    0.0000 C   0  0
   24.8130   -4.0697    0.0000 C   0  0
   25.5253   -4.4771    0.0000 N   0  0
   26.2389   -4.0638    0.0000 C   0  0
   26.2355   -3.2386    0.0000 N   0  0
   25.5186   -2.8267    0.0000 C   0  0
   22.6880   -2.8397    0.0000 O   0  0
   22.6878   -2.0225    0.0000 C   0  0
   22.6867   -4.4757    0.0000 O   0  0
   21.9793   -4.0665    0.0000 C   0  0
   25.5141   -2.0095    0.0000 N   0  0
   26.9477   -4.4705    0.0000 N   0  0
   28.3606   -5.2919    0.0000 N   0  0
   28.3603   -4.4738    0.0000 C   0  0
   27.6511   -4.0627    0.0000 C   0  0
   27.6516   -5.6990    0.0000 C   0  0  2  0  0  0
   26.9442   -5.2907    0.0000 C   0  0  2  0  0  0
   26.2409   -5.6969    0.0000 C   0  0
   26.2387   -6.5130    0.0000 C   0  0
   26.9460   -6.9213    0.0000 C   0  0
   27.6556   -6.5135    0.0000 C   0  0
   29.0679   -5.7013    0.0000 C   0  0
   29.0670   -6.5185    0.0000 O   0  0
   29.7760   -5.2934    0.0000 C   0  0
   30.5192   -5.6274    0.0000 O   0  0
   31.0666   -5.0207    0.0000 C   0  0
   30.6587   -4.3125    0.0000 C   0  0
   29.8593   -4.4817    0.0000 C   0  0
   31.8792   -5.1070    0.0000 C   0  0
   30.0202   -2.8875    0.0000 Cl  0  0
  1  2  2  0
  2  3  1  0
  3  6  2  0
  5  4  2  0
  4  1  1  0
  5  6  1  0
  5 10  1  0
  6  7  1  0
  7  8  2  0
  8  9  1  0
  9 10  2  0
  1 11  1  0
 11 12  1  0
  2 13  1  0
 13 14  1  0
 10 15  1  0
  8 16  1  0
 16 21  1  0
 16 19  1  0
 20 17  1  0
 17 18  1  0
 18 19  1  0
 20 21  1  0
 20 25  1  1
 21 22  1  6
 22 23  1  0
 23 24  1  0
 24 25  1  0
 17 26  1  0
 26 27  2  0
 26 28  1  0
 28 29  1  0
 29 30  1  0
 30 31  2  0
 31 32  1  0
 32 28  2  0
 30 33  1  0
M  END