
          11280715332D 1   1.00000     0.00000     0

 46 47  0     1  0            999 V2000
    0.1250   -2.2917    0.0000 C   0  0  0  0  0  0           0  0  0
    3.6917   -2.7042    0.0000 C   0  0  0  0  0  0           0  0  0
    2.9792   -2.2917    0.0000 C   0  0  1  0  0  0           0  0  0
    0.8375   -2.7042    0.0000 C   0  0  1  0  0  0           0  0  0
   -0.5875   -2.7042    0.0000 N   0  0  3  0  0  0           0  0  0
    4.4125   -2.2917    0.0000 N   0  0  3  0  0  0           0  0  0
    2.2667   -2.7042    0.0000 C   0  0  1  0  0  0           0  0  0
    1.5542   -2.2917    0.0000 C   0  0  1  0  0  0           0  0  0
   -1.3083   -2.2917    0.0000 C   0  0  3  0  0  0           0  0  0
    5.1250   -2.7042    0.0000 C   0  0  3  0  0  0           0  0  0
    2.9792   -1.4667    0.0000 O   0  0  0  0  0  0           0  0  0
    0.8375   -3.5292    0.0000 O   0  0  0  0  0  0           0  0  0
    5.1250   -3.5292    0.0000 C   0  0  0  0  0  0           0  0  0
   -1.3083   -1.4667    0.0000 C   0  0  0  0  0  0           0  0  0
    0.1250   -1.4667    0.0000 O   0  0  0  0  0  0           0  0  0
    3.6917   -3.5292    0.0000 O   0  0  0  0  0  0           0  0  0
    4.4125   -3.9417    0.0000 O   0  0  0  0  0  0           0  0  0
   -0.5875   -1.0542    0.0000 O   0  0  0  0  0  0           0  0  0
    2.2667   -3.5292    0.0000 O   0  0  0  0  0  0           0  0  0
    1.5542   -1.4667    0.0000 O   0  0  0  0  0  0           0  0  0
    3.7667   -1.0292    0.0000 C   0  0  0  0  0  0           0  0  0
    0.1250   -3.9417    0.0000 C   0  0  0  0  0  0           0  0  0
   -2.0208   -2.7042    0.0000 C   0  0  3  0  0  0           0  0  0
    5.8417   -2.2917    0.0000 C   0  0  3  0  0  0           0  0  0
    5.8417   -3.9417    0.0000 O   0  0  0  0  0  0           0  0  0
   -2.0208   -1.0542    0.0000 O   0  0  0  0  0  0           0  0  0
   -0.5875   -3.5292    0.0000 C   0  0  0  0  0  0           0  0  0
    4.4125   -1.4667    0.0000 C   0  0  0  0  0  0           0  0  0
    0.1250   -4.7667    0.0000 C   0  0  0  0  0  0           0  0  0
    3.7375   -0.2042    0.0000 C   0  0  0  0  0  0           0  0  0
   -2.7333   -2.2917    0.0000 C   0  0  0  0  0  0           0  0  0
    6.5542   -2.7042    0.0000 C   0  0  0  0  0  0           0  0  0
   -2.0208   -3.5292    0.0000 C   0  0  0  0  0  0           0  0  0
    5.8417   -1.4667    0.0000 C   0  0  0  0  0  0           0  0  0
    4.4375    0.2333    0.0000 C   0  0  0  0  0  0           0  0  0
   -0.5958   -5.1792    0.0000 C   0  0  0  0  0  0           0  0  0
    0.8375   -5.1792    0.0000 C   0  0  0  0  0  0           0  0  0
    3.0042    0.1833    0.0000 C   0  0  0  0  0  0           0  0  0
   -3.4458   -2.7042    0.0000 C   0  0  0  0  0  0           0  0  0
    7.2667   -2.2917    0.0000 C   0  0  0  0  0  0           0  0  0
    4.4042    1.0583    0.0000 C   0  0  0  0  0  0           0  0  0
    2.9792    1.0083    0.0000 C   0  0  0  0  0  0           0  0  0
   -0.5958   -6.0042    0.0000 C   0  0  0  0  0  0           0  0  0
    0.8417   -6.0042    0.0000 C   0  0  0  0  0  0           0  0  0
    0.1250   -6.4167    0.0000 C   0  0  0  0  0  0           0  0  0
    3.6792    1.4458    0.0000 C   0  0  0  0  0  0           0  0  0
  2  3  1  0     0  0
  3  7  1  0     0  0
  4  1  1  0     0  0
  5  1  1  0     0  0
  6  2  1  0     0  0
  7  8  1  0     0  0
  8  4  1  0     0  0
  9  5  1  0     0  0
 10  6  1  0     0  0
  3 11  1  1     0  0
  4 12  1  1     0  0
 13 10  1  0     0  0
 14  9  1  0     0  0
 15  1  2  0     0  0
 16  2  2  0     0  0
 17 13  2  0     0  0
 18 14  2  0     0  0
  7 19  1  6     0  0
  8 20  1  6     0  0
 21 11  1  0     0  0
 22 12  1  0     0  0
 23  9  1  0     0  0
 24 10  1  0     0  0
 25 13  1  0     0  0
 26 14  1  0     0  0
 27  5  1  0     0  0
 28  6  1  0     0  0
 29 22  1  0     0  0
 30 21  1  0     0  0
 31 23  1  0     0  0
 32 24  1  0     0  0
 33 23  1  0     0  0
 34 24  1  0     0  0
 35 30  2  0     0  0
 36 29  2  0     0  0
 37 29  1  0     0  0
 38 30  1  0     0  0
 39 31  1  0     0  0
 40 32  1  0     0  0
 41 35  1  0     0  0
 42 38  2  0     0  0
 43 36  1  0     0  0
 44 37  2  0     0  0
 45 44  1  0     0  0
 46 42  1  0     0  0
 45 43  2  0     0  0
 41 46  2  0     0  0
M  END