
  SciTegic06051315212D

 30 33  0  0  0  0            999 V2000
   17.9355   -8.8033    0.0000 C   0  0
   17.9344   -9.6229    0.0000 C   0  0
   18.6424  -10.0318    0.0000 C   0  0
   19.3521   -9.6224    0.0000 C   0  0
   19.3492   -8.7997    0.0000 C   0  0
   18.6406   -8.3945    0.0000 C   0  0
   18.6422  -10.8490    0.0000 C   0  0
   20.0604  -10.0299    0.0000 O   0  0
   20.7675   -9.6202    0.0000 C   0  0
   17.9860  -11.3292    0.0000 N   0  0
   18.2383  -12.1065    0.0000 N   0  0
   19.0556  -12.1067    0.0000 C   0  0
   19.3082  -11.3295    0.0000 C   0  0
   19.5358  -12.7679    0.0000 C   0  0
   17.7578  -12.7675    0.0000 C   0  0
   21.4758  -10.0277    0.0000 C   0  0
   16.9466  -12.6767    0.0000 C   0  0
   16.4662  -13.3369    0.0000 C   0  0
   16.7984  -14.0845    0.0000 C   0  0
   17.6156  -14.1679    0.0000 C   0  0
   18.0923  -13.5068    0.0000 C   0  0
   19.1998  -13.5114    0.0000 C   0  0
   19.6793  -14.1722    0.0000 C   0  0
   20.4930  -14.0872    0.0000 C   0  0
   20.8248  -13.3358    0.0000 C   0  0
   20.3432  -12.6782    0.0000 C   0  0
   22.1829   -9.6180    0.0000 C   0  0
   22.8913  -10.0254    0.0000 C   0  0
   23.5983   -9.6157    0.0000 O   0  0
   22.8925  -10.8426    0.0000 O   0  0
  1  2  2  0
  2  3  1  0
  3  4  2  0
  4  5  1  0
  5  6  2  0
  6  1  1  0
  3  7  1  0
  4  8  1  0
  8  9  1  0
  7 10  2  0
 10 11  1  0
 11 12  1  0
 12 13  2  0
 13  7  1  0
 12 14  1  0
 11 15  1  0
  9 16  1  0
 15 17  2  0
 17 18  1  0
 18 19  2  0
 19 20  1  0
 20 21  2  0
 21 15  1  0
 14 22  2  0
 22 23  1  0
 23 24  2  0
 24 25  1  0
 25 26  2  0
 26 14  1  0
 16 27  1  0
 27 28  1  0
 28 29  1  0
 28 30  2  0
M  END