
          01230816052D 1   1.00000     0.00000     0

 56 58  0     1  0            999 V2000
   -2.0253   -5.2152    0.0000 C   0  0  0  0  0  0           0  0  0
   -1.3088   -4.8019    0.0000 C   0  0  0  0  0  0           0  0  0
   -1.3117   -3.9713    0.0000 C   0  0  0  0  0  0           0  0  0
   -2.0281   -3.5634    0.0000 C   0  0  0  0  0  0           0  0  0
   -0.5992   -3.5555    0.0000 O   0  0  0  0  0  0           0  0  0
    0.1172   -3.9646    0.0000 C   0  0  0  0  0  0           0  0  0
    0.8298   -3.5487    0.0000 C   0  0  0  0  0  0           0  0  0
    1.5462   -3.9578    0.0000 N   0  0  0  0  0  0           0  0  0
    0.8259   -2.7237    0.0000 O   0  0  0  0  0  0           0  0  0
    2.2587   -3.5420    0.0000 C   0  0  2  0  0  0           0  0  0
    2.9751   -3.9511    0.0000 C   0  0  0  0  0  0           0  0  0
    3.6876   -3.5352    0.0000 N   0  0  0  0  0  0           0  0  0
    2.9790   -4.7761    0.0000 O   0  0  0  0  0  0           0  0  0
    2.2548   -2.7170    0.0000 C   0  0  0  0  0  0           0  0  0
    2.9673   -2.3011    0.0000 C   0  0  0  0  0  0           0  0  0
    2.9634   -1.4761    0.0000 C   0  0  0  0  0  0           0  0  0
    3.6759   -1.0603    0.0000 C   0  0  0  0  0  0           0  0  0
    3.6720   -0.2353    0.0000 N   0  0  0  0  0  0           0  0  0
    4.4040   -3.9444    0.0000 C   0  0  2  0  0  0           0  0  0
    5.1165   -3.5285    0.0000 C   0  0  0  0  0  0           0  0  0
    4.4079   -4.7694    0.0000 C   0  0  3  0  0  0           0  0  0
    3.6954   -5.1852    0.0000 C   0  0  0  0  0  0           0  0  0
    5.1243   -5.1785    0.0000 C   0  0  0  0  0  0           0  0  0
    5.8329   -3.9376    0.0000 N   0  0  0  0  0  0           0  0  0
    5.1126   -2.7035    0.0000 O   0  0  0  0  0  0           0  0  0
    6.5455   -3.5218    0.0000 C   0  0  0  0  0  0           0  0  0
    7.2619   -3.9309    0.0000 C   0  0  0  0  0  0           0  0  0
    7.9744   -3.5150    0.0000 N   0  0  0  0  0  0           0  0  0
    7.2658   -4.7559    0.0000 O   0  0  0  0  0  0           0  0  0
    8.6908   -3.9241    0.0000 C   0  0  2  0  0  0           0  0  0
    9.4033   -3.5083    0.0000 C   0  0  0  0  0  0           0  0  0
    8.6947   -4.7491    0.0000 C   0  0  2  0  0  0           0  0  0
    7.9822   -5.1650    0.0000 C   0  0  0  0  0  0           0  0  0
    9.4111   -5.1582    0.0000 O   0  0  0  0  0  0           0  0  0
   10.1197   -3.9174    0.0000 N   0  0  3  0  0  0           0  0  0
    9.3994   -2.6833    0.0000 O   0  0  0  0  0  0           0  0  0
   10.2102   -4.7340    0.0000 C   0  0  0  0  0  0           0  0  0
   11.0180   -4.9017    0.0000 C   0  0  0  0  0  0           0  0  0
   11.4272   -4.1852    0.0000 C   0  0  0  0  0  0           0  0  0
   10.8722   -3.5749    0.0000 C   0  0  1  0  0  0           0  0  0
   11.0384   -2.7668    0.0000 C   0  0  0  0  0  0           0  0  0
   11.8213   -2.5067    0.0000 O   0  0  0  0  0  0           0  0  0
   12.4380   -3.0547    0.0000 C   0  0  0  0  0  0           0  0  0
   13.2210   -2.7946    0.0000 N   0  0  0  0  0  0           0  0  0
   12.2718   -3.8628    0.0000 O   0  0  0  0  0  0           0  0  0
   11.6667   -3.3542    0.0000 H   0  0  0  0  0  0           0  0  0
   13.8377   -3.3425    0.0000 C   0  0  3  0  0  0           0  0  0
   14.4208   -3.9250    0.0000 C   0  0  0  0  0  0           0  0  0
   14.4034   -2.7421    0.0000 C   0  0  0  0  0  0           0  0  0
   13.2725   -3.9436    0.0000 C   0  0  0  0  0  0           0  0  0
   -2.7401   -4.8023    0.0000 C   0  0  0  0  0  0           0  0  0
   -2.7378   -3.9768    0.0000 C   0  0  0  0  0  0           0  0  0
   -3.4505   -3.5638    0.0000 C   0  0  0  0  0  0           0  0  0
   -4.1659   -3.9752    0.0000 C   0  0  0  0  0  0           0  0  0
   -4.1642   -4.8040    0.0000 C   0  0  0  0  0  0           0  0  0
   -3.4510   -5.2132    0.0000 C   0  0  0  0  0  0           0  0  0
 27 28  1  0     0  0
  5  6  1  0     0  0
 27 29  2  0     0  0
 10 14  1  1     0  0
 30 28  1  6     0  0
  2  3  1  0     0  0
 30 31  1  0     0  0
 14 15  1  0     0  0
 30 32  1  0     0  0
  6  7  1  0     0  0
 32 33  1  0     0  0
 15 16  1  0     0  0
 32 34  1  1     0  0
  3  4  2  0     0  0
 31 35  1  0     0  0
 16 17  1  0     0  0
 31 36  2  0     0  0
  7  8  1  0     0  0
 35 37  1  0     0  0
 17 18  1  0     0  0
 12 19  1  0     0  0
  7  9  2  0     0  0
 37 38  1  0     0  0
 38 39  1  0     0  0
 39 40  1  0     0  0
 40 35  1  0     0  0
 19 20  1  0     0  0
 40 41  1  0     0  0
 52  4  1  0     0  0
 41 42  1  0     0  0
 19 21  1  6     0  0
 42 43  1  0     0  0
  8 10  1  0     0  0
 43 44  1  0     0  0
 21 22  1  0     0  0
 43 45  2  0     0  0
  1  2  2  0     0  0
 40 46  1  1     0  0
 21 23  1  0     0  0
 44 47  1  0     0  0
 10 11  1  0     0  0
 47 48  1  0     0  0
 20 24  1  0     0  0
 47 49  1  0     0  0
  3  5  1  0     0  0
 47 50  1  0     0  0
 20 25  2  0     0  0
 11 12  1  0     0  0
 51 52  1  0     0  0
 24 26  1  0     0  0
 52 53  2  0     0  0
 51  1  1  0     0  0
 53 54  1  0     0  0
 26 27  1  0     0  0
 54 55  2  0     0  0
 11 13  2  0     0  0
 55 56  1  0     0  0
 56 51  2  0     0  0
M  END