
  Mrv0541 04051115152D          

 15 16  0  0  0  0            999 V2000
    1.3345    3.0017    0.0000 C   0  0  0  0  0  0  0  0  0  0  0  0
    1.3345    2.1767    0.0000 C   0  0  0  0  0  0  0  0  0  0  0  0
    2.0490    1.7642    0.0000 C   0  0  0  0  0  0  0  0  0  0  0  0
    0.6200    1.7643    0.0000 C   0  0  0  0  0  0  0  0  0  0  0  0
    0.6200    0.9393    0.0000 C   0  0  0  0  0  0  0  0  0  0  0  0
   -0.0944    0.5268    0.0000 N   0  0  0  0  0  0  0  0  0  0  0  0
   -0.0944   -0.2982    0.0000 C   0  0  0  0  0  0  0  0  0  0  0  0
   -0.8089   -0.7107    0.0000 C   0  0  0  0  0  0  0  0  0  0  0  0
   -1.5935   -0.4558    0.0000 N   0  0  0  0  0  0  0  0  0  0  0  0
   -0.8089   -1.5357    0.0000 C   0  0  0  0  0  0  0  0  0  0  0  0
   -1.5935   -1.7907    0.0000 N   0  0  0  0  0  0  0  0  0  0  0  0
   -2.0784   -1.1232    0.0000 C   0  0  0  0  0  0  0  0  0  0  0  0
   -0.0944   -1.9482    0.0000 N   0  0  0  0  0  0  0  0  0  0  0  0
    0.6200   -1.5358    0.0000 C   0  0  0  0  0  0  0  0  0  0  0  0
    0.6200   -0.7108    0.0000 N   0  0  0  0  0  0  0  0  0  0  0  0
  2  1  1  0  0  0  0
  2  3  1  0  0  0  0
  4  2  2  0  0  0  0
  5  4  1  0  0  0  0
  5  6  1  0  0  0  0
  7  6  1  0  0  0  0
  8  7  2  0  0  0  0
  7 15  1  0  0  0  0
  8  9  1  0  0  0  0
 10  8  1  0  0  0  0
 12  9  2  0  0  0  0
 10 11  1  0  0  0  0
 10 13  2  0  0  0  0
 12 11  1  0  0  0  0
 14 13  1  0  0  0  0
 14 15  2  0  0  0  0
M  END