
  SciTegic06051313552D

 62 68  0  0  0  0            999 V2000
   -8.5326  -27.1422    0.0000 C   0  0
   -9.0265  -26.4873    0.0000 C   0  0
   -9.8451  -26.5919    0.0000 C   0  0
  -10.1664  -27.3526    0.0000 N   0  0
   -9.6670  -28.0095    0.0000 C   0  0
   -8.8381  -27.9058    0.0000 C   0  0
  -10.9813  -27.4564    0.0000 C   0  0
  -11.3038  -28.2172    0.0000 C   0  0
  -12.1182  -28.3172    0.0000 C   0  0
  -12.4406  -29.0772    0.0000 C   0  0
  -11.9400  -29.7350    0.0000 C   0  0
  -11.1206  -29.6280    0.0000 C   0  0
  -10.8027  -28.8680    0.0000 C   0  0
  -12.6141  -27.6626    0.0000 C   0  0
  -12.2952  -26.9022    0.0000 C   0  0
  -12.7902  -26.2444    0.0000 C   0  0
  -13.6123  -26.3459    0.0000 C   0  0
  -13.9335  -27.1109    0.0000 C   0  0
  -13.4324  -27.7654    0.0000 C   0  0
  -14.1056  -25.6884    0.0000 Cl  0  0
   -4.6794  -29.5891    0.0000 O   0  0
   -3.9627  -29.1808    0.0000 S   0  0
   -4.6758  -28.7642    0.0000 O   0  0
   -4.0410  -25.4967    0.0000 O   0  0
   -4.0182  -26.3255    0.0000 S   0  0
   -3.3098  -25.8947    0.0000 O   0  0
   -4.8444  -26.3441    0.0000 N   0  0
   -3.5879  -27.0331    0.0000 C   0  0
   -3.9878  -27.7551    0.0000 C   0  0
   -3.5640  -28.4606    0.0000 C   0  0
   -2.7397  -28.4441    0.0000 C   0  0
   -2.3455  -27.7163    0.0000 C   0  0
   -2.7669  -27.0138    0.0000 C   0  0
   -2.3093  -29.1495    0.0000 N   0  0
   -1.4841  -29.1315    0.0000 C   0  0  2  0  0  0
   -1.0620  -29.8369    0.0000 C   0  0
   -0.2368  -29.8189    0.0000 C   0  0
    0.1981  -30.5242    0.0000 N   0  0
   -1.0893  -28.4082    0.0000 C   0  0
   -0.2640  -28.3902    0.0000 S   0  0
    0.1358  -27.6669    0.0000 C   0  0
    0.9615  -27.6514    0.0000 C   0  0
    1.3582  -26.9289    0.0000 C   0  0
    0.9302  -26.2225    0.0000 C   0  0
    0.1012  -26.2432    0.0000 C   0  0
   -0.2998  -26.9662    0.0000 C   0  0
    1.0187  -30.5004    0.0000 C   0  0
   -5.2398  -27.0676    0.0000 C   0  0
   -3.5342  -29.8893    0.0000 C   0  0
   -3.9361  -30.6119    0.0000 F   0  0
   -2.7090  -29.8728    0.0000 F   0  0
   -3.1251  -30.6017    0.0000 F   0  0
   -6.0299  -28.5091    0.0000 N   0  0
   -5.2057  -28.4925    0.0000 C   0  0
   -4.8065  -27.7683    0.0000 N   0  0
   -6.4615  -27.8057    0.0000 C   0  0
   -6.0661  -27.0823    0.0000 C   0  0
   -6.4902  -26.3812    0.0000 C   0  0
   -7.3161  -26.3975    0.0000 C   0  0
   -7.7115  -27.1209    0.0000 N   0  0
   -7.2810  -27.8281    0.0000 C   0  0
   -0.2038  -31.2490    0.0000 C   0  0
  1  2  1  0
  1  6  1  0
  2  3  1  0
  3  4  1  0
  4  5  1  0
  5  6  1  0
  4  7  1  0
  7  8  1  0
  8  9  2  0
  9 10  1  0
 10 11  2  0
 11 12  1  0
 12 13  2  0
 13  8  1  0
 14 15  2  0
 15 16  1  0
 16 17  2  0
 17 18  1  0
 18 19  2  0
 19 14  1  0
  9 14  1  0
 17 20  1  0
 22 21  2  0
 23 22  2  0
 25 24  2  0
 26 25  2  0
 27 25  1  0
 25 28  1  0
 28 29  2  0
 29 30  1  0
 30 31  2  0
 31 32  1  0
 32 33  2  0
 33 28  1  0
 31 34  1  0
 34 35  1  0
 35 36  1  0
 36 37  1  0
 37 38  1  0
 35 39  1  1
 39 40  1  0
 40 41  1  0
 41 42  2  0
 42 43  1  0
 43 44  2  0
 44 45  1  0
 45 46  2  0
 46 41  1  0
 38 47  1  0
 27 48  1  0
 30 22  1  0
 22 49  1  0
 49 50  1  0
 49 51  1  0
 49 52  1  0
 48 57  2  0
 48 55  1  0
 56 53  2  0
 53 54  1  0
 54 55  2  0
 56 57  1  0
 56 61  1  0
 57 58  1  0
 58 59  1  0
 59 60  1  0
 60 61  1  0
 60  1  1  0
 38 62  1  0
M  END