
          11280715112D 1   1.00000     0.00000     0

 24 26  0     0  0            999 V2000
    4.2625   -3.8167    0.0000 C   0  0  0  0  0  0           0  0  0
    5.3000   -3.8167    0.0000 C   0  0  0  0  0  0           0  0  0
    4.2625   -4.4167    0.0000 C   0  0  0  0  0  0           0  0  0
    4.7792   -4.7250    0.0000 N   0  0  0  0  0  0           0  0  0
    5.8125   -3.5125    0.0000 C   0  0  0  0  0  0           0  0  0
    5.3000   -4.4167    0.0000 C   0  0  0  0  0  0           0  0  0
    6.3292   -3.8125    0.0000 C   0  0  0  0  0  0           0  0  0
    6.3292   -4.4167    0.0000 N   0  0  0  0  0  0           0  0  0
    3.7417   -3.5250    0.0000 C   0  0  0  0  0  0           0  0  0
    3.7417   -4.7167    0.0000 C   0  0  0  0  0  0           0  0  0
    6.8500   -3.5042    0.0000 C   0  0  0  0  0  0           0  0  0
    3.2292   -3.8167    0.0000 C   0  0  0  0  0  0           0  0  0
    3.2292   -4.4167    0.0000 C   0  0  0  0  0  0           0  0  0
    5.8125   -4.7167    0.0000 C   0  0  0  0  0  0           0  0  0
    6.8417   -2.9042    0.0000 O   0  0  0  0  0  0           0  0  0
    7.3667   -3.8042    0.0000 O   0  0  0  0  0  0           0  0  0
    5.8042   -2.9125    0.0000 C   0  0  0  0  0  0           0  0  0
    2.7042   -3.5167    0.0000 O   0  0  0  0  0  0           0  0  0
    2.7042   -4.7167    0.0000 O   0  0  0  0  0  0           0  0  0
    7.8875   -3.5042    0.0000 C   0  0  0  0  0  0           0  0  0
    2.7125   -2.9167    0.0000 C   0  0  0  0  0  0           0  0  0
    2.1875   -4.4167    0.0000 C   0  0  0  0  0  0           0  0  0
    6.3250   -2.6125    0.0000 C   0  0  0  0  0  0           0  0  0
    8.4125   -3.8000    0.0000 C   0  0  0  0  0  0           0  0  0
  2  1  2  0     0  0
  3  1  1  0     0  0
  4  3  2  0     0  0
  5  2  1  0     0  0
  6  2  1  0     0  0
  7  5  2  0     0  0
  8 14  1  0     0  0
  9  1  1  0     0  0
 10  3  1  0     0  0
 11  7  1  0     0  0
 12  9  2  0     0  0
 13 12  1  0     0  0
 14  6  2  0     0  0
 15 11  2  0     0  0
 16 11  1  0     0  0
 17  5  1  0     0  0
 18 12  1  0     0  0
 19 13  1  0     0  0
 20 16  1  0     0  0
 21 18  1  0     0  0
 22 19  1  0     0  0
 23 17  1  0     0  0
 24 20  1  0     0  0
  6  4  1  0     0  0
 10 13  2  0     0  0
  7  8  1  0     0  0
M  END