
  SciTegic02181312462D

 45 48  0  0  0  0            999 V2000
   27.5611  -15.1805    0.0000 C   0  0
   28.2437  -14.7776    0.0000 C   0  0
   28.2394  -13.9839    0.0000 C   0  0
   27.5483  -13.5924    0.0000 C   0  0
   26.8657  -13.9954    0.0000 C   0  0
   26.8707  -14.7850    0.0000 C   0  0
   28.9348  -15.1690    0.0000 C   0  0
   27.5440  -12.7987    0.0000 F   0  0
   27.5664  -15.9977    0.0000 C   0  0
   26.9195  -17.2101    0.0000 C   0  0
   26.8923  -16.4163    0.0000 C   0  0
   28.2670  -16.3686    0.0000 C   0  0
   28.2942  -17.1624    0.0000 C   0  0
   27.6212  -17.5812    0.0000 N   0  0
   28.9954  -17.5427    0.0000 N   0  0
   26.1712  -16.0318    0.0000 N   0  0
   26.1437  -15.2150    0.0000 C   0  0
   25.4776  -16.4640    0.0000 C   0  0
   24.7566  -16.0794    0.0000 C   0  0
   25.5051  -17.2807    0.0000 O   0  0
   24.0630  -16.5116    0.0000 C   0  0
   23.3428  -16.1239    0.0000 C   0  0
   22.6497  -16.5554    0.0000 C   0  0
   22.6768  -17.3730    0.0000 C   0  0
   23.4029  -17.7572    0.0000 C   0  0
   24.0930  -17.3235    0.0000 C   0  0
   25.3175  -15.4780    0.0000 C   0  0
   24.3268  -15.3798    0.0000 C   0  0
   23.4332  -18.5739    0.0000 C   0  0
   22.7412  -19.0085    0.0000 F   0  0
   24.1557  -18.9559    0.0000 F   0  0
   23.4560  -19.3845    0.0000 F   0  0
   21.9289  -16.1705    0.0000 C   0  0
   21.9018  -15.3538    0.0000 F   0  0
   21.2351  -16.6024    0.0000 F   0  0
   21.3336  -15.6023    0.0000 F   0  0
   29.0104  -18.3427    0.0000 C   0  0
   29.7078  -18.7231    0.0000 C   0  0
   30.3904  -18.3092    0.0000 N   0  0
   30.3710  -17.5107    0.0000 C   0  0
   29.6691  -17.1260    0.0000 C   0  0
   31.1072  -18.7016    0.0000 S   0  0
   31.1259  -19.5185    0.0000 C   0  0
   31.6847  -18.1185    0.0000 O   0  0
   31.8952  -18.9110    0.0000 O   0  0
  1  2  1  0
  2  3  2  0
  3  4  1  0
  4  5  2  0
  5  6  1  0
  1  6  2  0
  2  7  1  0
  4  8  1  0
  1  9  1  0
 10 11  1  0
 11  9  2  0
  9 12  1  0
 12 13  2  0
 13 14  1  0
 10 14  2  0
 13 15  1  0
 11 16  1  0
 16 17  1  0
 16 18  1  0
 18 19  1  0
 18 20  2  0
 19 21  1  0
 21 22  2  0
 22 23  1  0
 23 24  2  0
 24 25  1  0
 25 26  2  0
 26 21  1  0
 19 27  1  0
 19 28  1  0
 25 29  1  0
 29 30  1  0
 29 31  1  0
 29 32  1  0
 23 33  1  0
 33 34  1  0
 33 35  1  0
 33 36  1  0
 15 37  1  0
 15 41  1  0
 37 38  1  0
 38 39  1  0
 39 40  1  0
 40 41  1  0
 39 42  1  0
 42 43  1  0
 42 44  2  0
 42 45  2  0
M  END