
  CDK    9/16/09,9:59

 19 20  0  0  0  0  0  0  0  0999 V2000
   -4.3947  -24.5841    0.0000 C   0  0  0  0  0  0  0  0  0  0  0  0
   -3.5691  -24.5857    0.0000 C   0  0  0  0  0  0  0  0  0  0  0  0
   -4.7881  -22.4420    0.0000 C   0  0  0  0  0  0  0  0  0  0  0  0
   -4.3806  -23.1592    0.0000 N   0  0  0  0  0  0  0  0  0  0  0  0
   -4.7997  -23.8660    0.0000 C   0  0  0  0  0  0  0  0  0  0  0  0
   -4.8129  -25.2932    0.0000 O   0  0  0  0  0  0  0  0  0  0  0  0
   -3.1546  -23.8770    0.0000 O   0  0  0  0  0  0  0  0  0  0  0  0
   -5.6252  -23.8652    0.0000 C   0  0  0  0  0  0  0  0  0  0  0  0
   -6.0336  -23.1457    0.0000 O   0  0  0  0  0  0  0  0  0  0  0  0
   -4.3669  -21.7261    0.0000 C   0  0  0  0  0  0  0  0  0  0  0  0
   -4.3657  -20.3927    0.0000 N   0  0  0  0  0  0  0  0  0  0  0  0
   -4.8473  -21.0646    0.0000 C   0  0  0  0  0  0  0  0  0  0  0  0
   -3.5805  -20.6486    0.0000 C   0  0  0  0  0  0  0  0  0  0  0  0
   -3.5826  -21.4724    0.0000 C   0  0  0  0  0  0  0  0  0  0  0  0
   -2.8671  -21.8885    0.0000 N   0  0  0  0  0  0  0  0  0  0  0  0
   -2.1491  -21.4736    0.0000 C   0  0  0  0  0  0  0  0  0  0  0  0
   -2.1511  -20.6466    0.0000 N   0  0  0  0  0  0  0  0  0  0  0  0
   -2.8671  -20.2343    0.0000 C   0  0  0  0  0  0  0  0  0  0  0  0
   -2.8686  -19.4085    0.0000 O   0  0  0  0  0  0  0  0  0  0  0  0
  3 10  1  0  0  0  0 
 10 14  1  0  0  0  0 
  1  2  1  0  0  0  0 
  1  6  1  6  0  0  0 
 13 11  1  0  0  0  0 
 11 12  1  0  0  0  0 
 12 10  2  0  0  0  0 
  2  7  1  0  0  0  0 
 13 14  2  0  0  0  0 
  3  4  1  0  0  0  0 
 14 15  1  0  0  0  0 
  5  8  1  1  0  0  0 
 15 16  2  0  0  0  0 
  4  5  1  0  0  0  0 
 16 17  1  0  0  0  0 
  8  9  1  0  0  0  0 
 17 18  1  0  0  0  0 
 18 13  1  0  0  0  0 
  5  1  1  0  0  0  0 
 18 19  2  0  0  0  0 
M  END