
  SciTegic11201309402D

 60 65  0  0  1  0            999 V2000
    5.6500   -0.6667    0.0000 C   0  0
    4.9542   -1.1042    0.0000 C   0  0  1  0  0  0
    1.4917   -3.2875    0.0000 C   0  0  2  0  0  0
    5.6292    0.1583    0.0000 C   0  0  2  0  0  0
    4.2250   -0.7042    0.0000 C   0  0  2  0  0  0
    6.3542   -0.2375    0.0000 O   0  0
    3.5542   -1.9750    0.0000 C   0  0  2  0  0  0
    2.1417   -2.0250    0.0000 C   0  0  2  0  0  0
    2.8667   -2.4042    0.0000 C   0  0  2  0  0  0
    1.4542   -2.4667    0.0000 C   0  0  2  0  0  0
    3.5292   -1.1500    0.0000 C   0  0  1  0  0  0
    4.9792   -1.9250    0.0000 C   0  0  2  0  0  0
    2.2167   -3.6625    0.0000 C   0  0  2  0  0  0
    4.2792   -2.3542    0.0000 C   0  0  1  0  0  0
    2.9042   -3.2250    0.0000 C   0  0  1  0  0  0
    4.9042    0.5500    0.0000 C   0  0
    4.1917    0.1208    0.0000 C   0  0
    6.3625   -1.0792    0.0000 C   0  0
    1.4875   -4.1125    0.0000 C   0  0
    0.8000   -1.9792    0.0000 C   0  0
    0.8667   -3.8292    0.0000 C   0  0
    2.1042   -1.2042    0.0000 C   0  0
   -0.3333   -2.9500    0.0000 C   0  0
    2.8000   -0.7667    0.0000 C   0  0
    5.7042   -2.3167    0.0000 O   0  0
    2.2500   -4.4875    0.0000 O   0  0
    4.3042   -3.1792    0.0000 O   0  0
    3.6375   -3.6042    0.0000 O   0  0
    0.0625   -3.6792    0.0000 O   0  0
    0.0000   -2.1875    0.0000 C   0  0
    0.7667   -4.5167    0.0000 O   0  0
    4.2167   -4.1875    0.0000 C   0  0
    5.1292   -3.1792    0.0000 C   0  0
    2.9792   -4.8667    0.0000 C   0  0
    6.4167   -2.7292    0.0000 C   0  0
    0.7625   -5.3417    0.0000 C   0  0
    4.9375   -0.2917    0.0000 O   0  0
    4.8792    1.3750    0.0000 C   0  0
    6.3542   -1.9042    0.0000 O   0  0
   -1.1583   -2.9792    0.0000 O   0  0
    5.6667   -1.5167    0.0000 C   0  0
    5.5417   -3.8917    0.0000 O   0  0
    1.4750   -5.7542    0.0000 O   0  0
    4.0042   -4.9792    0.0000 O   0  0
    3.0167   -5.6917    0.0000 O   0  0
    6.4167   -3.5542    0.0000 O   0  0
    4.2667   -1.5542    0.0000 C   0  0
    2.8542   -1.6042    0.0000 C   0  0
    7.0750   -0.6667    0.0000 O   0  0
    1.8917   -4.8250    0.0000 C   0  0
    0.0417   -5.7542    0.0000 C   0  0
    3.6792   -4.4250    0.0000 C   0  0
    5.9542   -3.1792    0.0000 C   0  0
    7.1292   -2.3167    0.0000 C   0  0
    5.0167   -3.9667    0.0000 C   0  0
    7.7875   -1.0792    0.0000 C   0  0
    3.7521   -2.8691    0.0000 H   0  0
    1.4889   -1.4673    0.0000 H   0  0
    3.4863   -0.1509    0.0000 H   0  0
    5.1519   -0.7205    0.0000 H   0  0
  2  1  1  0
  3 13  1  0
  4  1  1  0
  5  2  1  0
  6  1  1  0
  7 14  1  0
  8  9  1  0
  9  7  1  0
 10  8  1  0
 11  5  1  0
 12  2  1  0
 13 15  1  0
 14 12  1  0
 15  9  1  0
 16  4  1  0
 17 16  1  0
 18  1  1  0
  3 19  1  6
 20 10  1  0
 21  3  1  0
 22 24  1  0
 23 30  1  0
 24 11  1  0
 12 25  1  1
 13 26  1  6
 14 27  1  1
 15 28  1  6
 29 21  1  0
 30 20  2  0
 31 19  1  0
 32 28  1  0
 33 27  1  0
 34 26  1  0
 35 25  1  0
 36 31  1  0
  5 37  1  1
 38 16  2  0
 39 18  2  0
 40 23  2  0
  2 41  1  1
 42 33  2  0
 43 36  2  0
 44 32  2  0
 45 34  2  0
 46 35  2  0
  7 47  1  1
  8 48  1  1
 49 18  1  0
 50 19  1  0
 51 36  1  0
 52 34  1  0
 53 33  1  0
 54 35  1  0
 55 32  1  0
 56 49  1  0
  9 57  1  6
 10 58  1  6
 11 59  1  6
  4  6  1  0
 17  5  1  0
  7 11  1  0
 22  8  1  0
  3 10  1  0
 29 23  1  0
  4 60  1  6
M  END