
  Mrv0541 05211314572D          

126133  0  0  0  0            999 V2000
    3.0305   -1.5211    0.0000 C   0  0  0  0  0  0  0  0  0  0  0  0
    3.1588   -0.7062    0.0000 N   0  0  0  0  0  0  0  0  0  0  0  0
    2.5172   -0.1876    0.0000 C   0  0  0  0  0  0  0  0  0  0  0  0
    1.7473   -0.4839    0.0000 C   0  0  0  0  0  0  0  0  0  0  0  0
    1.1057    0.0347    0.0000 C   0  0  0  0  0  0  0  0  0  0  0  0
    0.3357   -0.2617    0.0000 C   0  0  0  0  0  0  0  0  0  0  0  0
   -0.3059    0.2570    0.0000 C   0  0  0  0  0  0  0  0  0  0  0  0
   -1.0758   -0.0394    0.0000 C   0  0  0  0  0  0  0  0  0  0  0  0
   -1.7174    0.4792    0.0000 C   0  0  0  0  0  0  0  0  0  0  0  0
   -2.4874    0.1829    0.0000 C   0  0  0  0  0  0  0  0  0  0  0  0
   -3.1290    0.7015    0.0000 N   0  0  0  0  0  0  0  0  0  0  0  0
   -3.0007    1.5164    0.0000 C   0  0  0  0  0  0  0  0  0  0  0  0
   -3.8989    0.4051    0.0000 C   0  0  0  0  0  0  0  0  0  0  0  0
   -4.5405    0.9237    0.0000 C   0  0  0  0  0  0  0  0  0  0  0  0
   -5.3105    0.6274    0.0000 C   0  0  0  0  0  0  0  0  0  0  0  0
   -5.9521    1.1460    0.0000 C   0  0  0  0  0  0  0  0  0  0  0  0
   -6.7220    0.8497    0.0000 C   0  0  0  0  0  0  0  0  0  0  0  0
   -7.3636    1.3683    0.0000 C   0  0  0  0  0  0  0  0  0  0  0  0
   -8.1336    1.0719    0.0000 N   0  0  0  0  0  0  0  0  0  0  0  0
   -8.7752    1.5905    0.0000 C   0  0  0  0  0  0  0  0  0  0  0  0
   -9.5451    1.2942    0.0000 C   0  0  0  0  0  0  0  0  0  0  0  0
   -9.6734    0.4792    0.0000 O   0  0  0  0  0  0  0  0  0  0  0  0
  -10.1867    1.8128    0.0000 N   0  0  0  0  0  0  0  0  0  0  0  0
  -10.9324    1.4597    0.0000 C   0  0  0  0  0  0  0  0  0  0  0  0
  -10.8761    0.6366    0.0000 C   0  0  0  0  0  0  0  0  0  0  0  0
  -11.5608    0.1764    0.0000 C   0  0  0  0  0  0  0  0  0  0  0  0
  -12.3018    0.5392    0.0000 C   0  0  0  0  0  0  0  0  0  0  0  0
  -12.3580    1.3623    0.0000 C   0  0  0  0  0  0  0  0  0  0  0  0
  -11.6733    1.8226    0.0000 C   0  0  0  0  0  0  0  0  0  0  0  0
  -11.8516    2.6281    0.0000 C   0  0  0  0  0  0  0  0  0  0  0  0
  -12.6547    2.8169    0.0000 O   0  0  0  0  0  0  0  0  0  0  0  0
  -11.3330    3.2697    0.0000 N   0  0  0  0  0  0  0  0  0  0  0  0
  -10.5080    3.2643    0.0000 C   0  0  0  0  0  0  0  0  0  0  0  0
  -10.2015    4.0302    0.0000 C   0  0  0  0  0  0  0  0  0  0  0  0
   -9.3850    4.1478    0.0000 C   0  0  0  0  0  0  0  0  0  0  0  0
   -8.8748    3.4994    0.0000 C   0  0  0  0  0  0  0  0  0  0  0  0
   -9.1813    2.7335    0.0000 N   0  0  0  0  0  0  0  0  0  0  0  0
   -9.9979    2.6159    0.0000 C   0  0  0  0  0  0  0  0  0  0  0  0
   -8.2619    0.2570    0.0000 C   0  0  0  0  0  0  0  0  0  0  0  0
   -7.6203   -0.2617    0.0000 C   0  0  0  0  0  0  0  0  0  0  0  0
   -6.8503    0.0347    0.0000 O   0  0  0  0  0  0  0  0  0  0  0  0
   -7.7486   -1.0766    0.0000 N   0  0  0  0  0  0  0  0  0  0  0  0
   -8.5385   -1.3146    0.0000 C   0  0  0  0  0  0  0  0  0  0  0  0
   -9.0487   -0.6662    0.0000 C   0  0  0  0  0  0  0  0  0  0  0  0
   -9.8652   -0.7838    0.0000 C   0  0  0  0  0  0  0  0  0  0  0  0
  -10.1717   -1.5498    0.0000 C   0  0  0  0  0  0  0  0  0  0  0  0
   -9.6616   -2.1982    0.0000 C   0  0  0  0  0  0  0  0  0  0  0  0
   -8.8450   -2.0806    0.0000 C   0  0  0  0  0  0  0  0  0  0  0  0
   -8.4372   -2.7977    0.0000 C   0  0  0  0  0  0  0  0  0  0  0  0
   -8.9064   -3.4763    0.0000 O   0  0  0  0  0  0  0  0  0  0  0  0
   -7.6222   -2.9261    0.0000 N   0  0  0  0  0  0  0  0  0  0  0  0
   -7.0138   -2.3689    0.0000 C   0  0  0  0  0  0  0  0  0  0  0  0
   -6.2729   -2.7317    0.0000 C   0  0  0  0  0  0  0  0  0  0  0  0
   -5.5882   -2.2715    0.0000 C   0  0  0  0  0  0  0  0  0  0  0  0
   -5.6444   -1.4484    0.0000 C   0  0  0  0  0  0  0  0  0  0  0  0
   -6.3853   -1.0856    0.0000 N   0  0  0  0  0  0  0  0  0  0  0  0
   -7.0700   -1.5458    0.0000 C   0  0  0  0  0  0  0  0  0  0  0  0
    3.9288   -0.4098    0.0000 C   0  0  0  0  0  0  0  0  0  0  0  0
    4.5704   -0.9284    0.0000 C   0  0  0  0  0  0  0  0  0  0  0  0
    5.3403   -0.6321    0.0000 C   0  0  0  0  0  0  0  0  0  0  0  0
    5.9819   -1.1507    0.0000 C   0  0  0  0  0  0  0  0  0  0  0  0
    6.7519   -0.8544    0.0000 C   0  0  0  0  0  0  0  0  0  0  0  0
    7.3935   -1.3730    0.0000 C   0  0  0  0  0  0  0  0  0  0  0  0
    8.1634   -1.0766    0.0000 N   0  0  0  0  0  0  0  0  0  0  0  0
    8.8050   -1.5952    0.0000 C   0  0  0  0  0  0  0  0  0  0  0  0
    9.5750   -1.2989    0.0000 C   0  0  0  0  0  0  0  0  0  0  0  0
    9.7033   -0.4839    0.0000 O   0  0  0  0  0  0  0  0  0  0  0  0
   10.2166   -1.8175    0.0000 N   0  0  0  0  0  0  0  0  0  0  0  0
   10.9622   -1.4644    0.0000 C   0  0  0  0  0  0  0  0  0  0  0  0
   10.9060   -0.6413    0.0000 C   0  0  0  0  0  0  0  0  0  0  0  0
   11.5907   -0.1811    0.0000 C   0  0  0  0  0  0  0  0  0  0  0  0
   12.3316   -0.5439    0.0000 C   0  0  0  0  0  0  0  0  0  0  0  0
   12.3878   -1.3670    0.0000 C   0  0  0  0  0  0  0  0  0  0  0  0
   11.7031   -1.8273    0.0000 C   0  0  0  0  0  0  0  0  0  0  0  0
   11.8814   -2.6328    0.0000 C   0  0  0  0  0  0  0  0  0  0  0  0
   12.6845   -2.8216    0.0000 O   0  0  0  0  0  0  0  0  0  0  0  0
   11.3628   -3.2744    0.0000 N   0  0  0  0  0  0  0  0  0  0  0  0
   10.5378   -3.2690    0.0000 C   0  0  0  0  0  0  0  0  0  0  0  0
   10.2314   -4.0349    0.0000 C   0  0  0  0  0  0  0  0  0  0  0  0
    9.4148   -4.1525    0.0000 C   0  0  0  0  0  0  0  0  0  0  0  0
    8.9047   -3.5041    0.0000 C   0  0  0  0  0  0  0  0  0  0  0  0
    9.2111   -2.7382    0.0000 N   0  0  0  0  0  0  0  0  0  0  0  0
   10.0277   -2.6206    0.0000 C   0  0  0  0  0  0  0  0  0  0  0  0
    8.2917   -0.2617    0.0000 C   0  0  0  0  0  0  0  0  0  0  0  0
    7.6501    0.2570    0.0000 C   0  0  0  0  0  0  0  0  0  0  0  0
    6.8802   -0.0394    0.0000 O   0  0  0  0  0  0  0  0  0  0  0  0
    7.7785    1.0719    0.0000 N   0  0  0  0  0  0  0  0  0  0  0  0
    7.0999    1.5411    0.0000 C   0  0  0  0  0  0  0  0  0  0  0  0
    6.4152    1.0809    0.0000 C   0  0  0  0  0  0  0  0  0  0  0  0
    5.6743    1.4437    0.0000 C   0  0  0  0  0  0  0  0  0  0  0  0
    5.6180    2.2668    0.0000 C   0  0  0  0  0  0  0  0  0  0  0  0
    6.3027    2.7270    0.0000 C   0  0  0  0  0  0  0  0  0  0  0  0
    7.0436    2.3642    0.0000 C   0  0  0  0  0  0  0  0  0  0  0  0
    7.6521    2.9214    0.0000 C   0  0  0  0  0  0  0  0  0  0  0  0
    7.4141    3.7113    0.0000 O   0  0  0  0  0  0  0  0  0  0  0  0
    8.4670    2.7930    0.0000 N   0  0  0  0  0  0  0  0  0  0  0  0
    8.8748    2.0759    0.0000 C   0  0  0  0  0  0  0  0  0  0  0  0
    9.6914    2.1935    0.0000 C   0  0  0  0  0  0  0  0  0  0  0  0
   10.2015    1.5451    0.0000 C   0  0  0  0  0  0  0  0  0  0  0  0
    9.8951    0.7791    0.0000 C   0  0  0  0  0  0  0  0  0  0  0  0
    9.0785    0.6615    0.0000 N   0  0  0  0  0  0  0  0  0  0  0  0
    8.5684    1.3099    0.0000 C   0  0  0  0  0  0  0  0  0  0  0  0
   15.6310    1.0717    0.0000 O   0  0  0  0  0  0  0  0  0  0  0  0
   16.0435    0.3572    0.0000 C   0  0  0  0  0  0  0  0  0  0  0  0
   16.8685    0.3572    0.0000 O   0  0  0  0  0  0  0  0  0  0  0  0
   15.6310   -0.3572    0.0000 C   0  0  0  0  0  0  0  0  0  0  0  0
   16.0435   -1.0717    0.0000 O   0  0  0  0  0  0  0  0  0  0  0  0
   14.8060   -0.3572    0.0000 O   0  0  0  0  0  0  0  0  0  0  0  0
   19.8149    1.0717    0.0000 O   0  0  0  0  0  0  0  0  0  0  0  0
   20.2274    0.3572    0.0000 C   0  0  0  0  0  0  0  0  0  0  0  0
   21.0524    0.3572    0.0000 O   0  0  0  0  0  0  0  0  0  0  0  0
   19.8149   -0.3572    0.0000 C   0  0  0  0  0  0  0  0  0  0  0  0
   20.2274   -1.0717    0.0000 O   0  0  0  0  0  0  0  0  0  0  0  0
   18.9899   -0.3572    0.0000 O   0  0  0  0  0  0  0  0  0  0  0  0
   -0.2063   -5.8025    0.0000 O   0  0  0  0  0  0  0  0  0  0  0  0
    0.2062   -6.5170    0.0000 C   0  0  0  0  0  0  0  0  0  0  0  0
    1.0313   -6.5170    0.0000 O   0  0  0  0  0  0  0  0  0  0  0  0
   -0.2063   -7.2315    0.0000 C   0  0  0  0  0  0  0  0  0  0  0  0
    0.2063   -7.9459    0.0000 O   0  0  0  0  0  0  0  0  0  0  0  0
   -1.0313   -7.2315    0.0000 O   0  0  0  0  0  0  0  0  0  0  0  0
    3.9777   -5.8025    0.0000 O   0  0  0  0  0  0  0  0  0  0  0  0
    4.3902   -6.5170    0.0000 C   0  0  0  0  0  0  0  0  0  0  0  0
    5.2152   -6.5170    0.0000 O   0  0  0  0  0  0  0  0  0  0  0  0
    3.9777   -7.2315    0.0000 C   0  0  0  0  0  0  0  0  0  0  0  0
    4.3902   -7.9459    0.0000 O   0  0  0  0  0  0  0  0  0  0  0  0
    3.1527   -7.2315    0.0000 O   0  0  0  0  0  0  0  0  0  0  0  0
  1  2  1  0  0  0  0
  2  3  1  0  0  0  0
  3  4  1  0  0  0  0
  4  5  1  0  0  0  0
  5  6  1  0  0  0  0
  6  7  1  0  0  0  0
  7  8  1  0  0  0  0
  8  9  1  0  0  0  0
  9 10  1  0  0  0  0
 10 11  1  0  0  0  0
 11 12  1  0  0  0  0
 11 13  1  0  0  0  0
 13 14  1  0  0  0  0
 14 15  1  0  0  0  0
 15 16  1  0  0  0  0
 16 17  1  0  0  0  0
 17 18  1  0  0  0  0
 18 19  1  0  0  0  0
 19 20  1  0  0  0  0
 20 21  1  0  0  0  0
 21 22  2  0  0  0  0
 21 23  1  0  0  0  0
 23 24  1  0  0  0  0
 24 25  2  0  0  0  0
 25 26  1  0  0  0  0
 26 27  2  0  0  0  0
 27 28  1  0  0  0  0
 28 29  2  0  0  0  0
 29 24  1  0  0  0  0
 29 30  1  0  0  0  0
 30 31  2  0  0  0  0
 30 32  1  0  0  0  0
 32 33  1  0  0  0  0
 33 34  2  0  0  0  0
 34 35  1  0  0  0  0
 35 36  2  0  0  0  0
 36 37  1  0  0  0  0
 37 38  2  0  0  0  0
 38 23  1  0  0  0  0
 38 33  1  0  0  0  0
 19 39  1  0  0  0  0
 39 40  1  0  0  0  0
 40 41  2  0  0  0  0
 40 42  1  0  0  0  0
 42 43  1  0  0  0  0
 43 44  2  0  0  0  0
 44 45  1  0  0  0  0
 45 46  2  0  0  0  0
 46 47  1  0  0  0  0
 47 48  2  0  0  0  0
 48 43  1  0  0  0  0
 48 49  1  0  0  0  0
 49 50  2  0  0  0  0
 49 51  1  0  0  0  0
 51 52  1  0  0  0  0
 52 53  2  0  0  0  0
 53 54  1  0  0  0  0
 54 55  2  0  0  0  0
 55 56  1  0  0  0  0
 56 57  2  0  0  0  0
 57 42  1  0  0  0  0
 57 52  1  0  0  0  0
  2 58  1  0  0  0  0
 58 59  1  0  0  0  0
 59 60  1  0  0  0  0
 60 61  1  0  0  0  0
 61 62  1  0  0  0  0
 62 63  1  0  0  0  0
 63 64  1  0  0  0  0
 64 65  1  0  0  0  0
 65 66  1  0  0  0  0
 66 67  2  0  0  0  0
 66 68  1  0  0  0  0
 68 69  1  0  0  0  0
 69 70  2  0  0  0  0
 70 71  1  0  0  0  0
 71 72  2  0  0  0  0
 72 73  1  0  0  0  0
 73 74  2  0  0  0  0
 74 69  1  0  0  0  0
 74 75  1  0  0  0  0
 75 76  2  0  0  0  0
 75 77  1  0  0  0  0
 77 78  1  0  0  0  0
 78 79  2  0  0  0  0
 79 80  1  0  0  0  0
 80 81  2  0  0  0  0
 81 82  1  0  0  0  0
 82 83  2  0  0  0  0
 83 68  1  0  0  0  0
 83 78  1  0  0  0  0
 64 84  1  0  0  0  0
 84 85  1  0  0  0  0
 85 86  2  0  0  0  0
 85 87  1  0  0  0  0
 87 88  1  0  0  0  0
 88 89  2  0  0  0  0
 89 90  1  0  0  0  0
 90 91  2  0  0  0  0
 91 92  1  0  0  0  0
 92 93  2  0  0  0  0
 93 88  1  0  0  0  0
 93 94  1  0  0  0  0
 94 95  2  0  0  0  0
 94 96  1  0  0  0  0
 96 97  1  0  0  0  0
 97 98  2  0  0  0  0
 98 99  1  0  0  0  0
 99100  2  0  0  0  0
100101  1  0  0  0  0
101102  2  0  0  0  0
102 87  1  0  0  0  0
102 97  1  0  0  0  0
103104  1  0  0  0  0
104105  2  0  0  0  0
104106  1  0  0  0  0
106107  2  0  0  0  0
106108  1  0  0  0  0
109110  1  0  0  0  0
110111  2  0  0  0  0
110112  1  0  0  0  0
112113  2  0  0  0  0
112114  1  0  0  0  0
115116  1  0  0  0  0
116117  2  0  0  0  0
116118  1  0  0  0  0
118119  2  0  0  0  0
118120  1  0  0  0  0
121122  1  0  0  0  0
122123  2  0  0  0  0
122124  1  0  0  0  0
124125  2  0  0  0  0
124126  1  0  0  0  0
M  END