
          05080814042D 1   1.00000     0.00000     0

 28 30  0     0  0            999 V2000
    4.2986    2.6417    0.0000 C   0  0  0  0  0  0           0  0  0
    4.2974    1.8143    0.0000 C   0  0  0  0  0  0           0  0  0
    5.0122    1.4015    0.0000 C   0  0  0  0  0  0           0  0  0
    5.7287    1.8148    0.0000 C   0  0  0  0  0  0           0  0  0
    5.7258    2.6453    0.0000 C   0  0  0  0  0  0           0  0  0
    5.0104    3.0545    0.0000 C   0  0  0  0  0  0           0  0  0
    6.4438    1.4034    0.0000 N   0  0  0  0  0  0           0  0  0
    6.4451    0.5784    0.0000 C   0  0  0  0  0  0           0  0  0
    7.1602    0.1671    0.0000 O   0  0  0  0  0  0           0  0  0
    5.7313    0.1648    0.0000 C   0  0  0  0  0  0           0  0  0
    5.0192    0.5800    0.0000 C   0  0  0  0  0  0           0  0  0
    4.3059    0.1671    0.0000 C   0  0  0  0  0  0           0  0  0
    4.3067   -0.6588    0.0000 C   0  0  0  0  0  0           0  0  0
    5.0269   -1.0700    0.0000 C   0  0  0  0  0  0           0  0  0
    5.7373   -0.6547    0.0000 C   0  0  0  0  0  0           0  0  0
    5.0311   -1.8950    0.0000 S   0  0  3  0  0  0           0  0  0
    5.0250   -2.7167    0.0000 N   0  0  3  0  0  0           0  0  0
    5.8561   -1.8959    0.0000 O   0  0  0  0  0  0           0  0  0
    4.2061   -1.8974    0.0000 O   0  0  0  0  0  0           0  0  0
    4.3085   -3.1210    0.0000 C   0  0  0  0  0  0           0  0  0
    4.3005   -3.9391    0.0000 C   0  0  0  0  0  0           0  0  0
    5.0072   -4.3590    0.0000 O   0  0  0  0  0  0           0  0  0
    5.7237   -3.9547    0.0000 C   0  0  0  0  0  0           0  0  0
    5.7334   -3.1304    0.0000 C   0  0  0  0  0  0           0  0  0
    6.4387    3.0605    0.0000 C   0  0  0  0  0  0           0  0  0
    7.1563    2.6510    0.0000 O   0  0  0  0  0  0           0  0  0
    6.4372    3.8858    0.0000 O   0  0  0  0  0  0           0  0  0
    3.5840    3.0540    0.0000 C   0  0  0  0  0  0           0  0  0
 13 14  1  0     0  0
  4  7  1  0     0  0
 14 15  2  0     0  0
 15 10  1  0     0  0
  3  4  2  0     0  0
 14 16  1  0     0  0
  7  8  1  0     0  0
 16 17  1  0     0  0
 16 18  2  0     0  0
  8  9  2  0     0  0
 16 19  2  0     0  0
 17 20  1  0     0  0
  4  5  1  0     0  0
  8 10  1  0     0  0
  2  3  1  0     0  0
 10 11  2  0     0  0
  5  6  2  0     0  0
 17 24  1  0     0  0
 20 21  1  0     0  0
 21 22  1  0     0  0
 22 23  1  0     0  0
 23 24  1  0     0  0
 11 12  1  0     0  0
  5 25  1  0     0  0
  6  1  1  0     0  0
 12 13  2  0     0  0
 25 26  1  0     0  0
 25 27  2  0     0  0
  1  2  2  0     0  0
  1 28  1  0     0  0
M  END