
  SciTegic01061111512D

 32 35  0  0  0  0            999 V2000
    7.5015  -15.6275    0.0000 N   0  0
    8.2185  -15.2139    0.0000 C   0  0
    8.2156  -14.3827    0.0000 N   0  0
    7.4997  -13.9732    0.0000 C   0  0
    7.4972  -13.1476    0.0000 O   0  0
    6.7861  -15.2143    0.0000 C   0  0
    6.7828  -14.3894    0.0000 C   0  0
    5.9971  -14.1376    0.0000 N   0  0
    5.5149  -14.8070    0.0000 C   0  0
    6.0025  -15.4724    0.0000 C   0  0
    5.7388  -13.3534    0.0000 C   0  0
    8.2110  -12.7327    0.0000 C   0  0
    8.9252  -13.1457    0.0000 C   0  0
    9.6384  -12.7315    0.0000 C   0  0
    9.6364  -11.9049    0.0000 C   0  0
    8.9151  -11.4944    0.0000 C   0  0
    8.2048  -11.9110    0.0000 C   0  0
   10.3497  -11.4890    0.0000 N   0  0
   11.0665  -11.8987    0.0000 C   0  0
   11.0700  -12.7244    0.0000 O   0  0
   11.7797  -11.4829    0.0000 N   0  0
   12.4966  -11.8926    0.0000 C   0  0
   12.4982  -12.7153    0.0000 C   0  0
   13.2141  -13.1250    0.0000 C   0  0
   13.9283  -12.7090    0.0000 C   0  0
   13.9221  -11.8791    0.0000 C   0  0
   13.2055  -11.4732    0.0000 C   0  0
   13.2172  -13.9506    0.0000 C   0  0
   13.2230  -14.7041    0.0000 F   0  0
   12.5535  -14.5006    0.0000 F   0  0
   13.8911  -14.4955    0.0000 F   0  0
    8.9097  -10.6687    0.0000 F   0  0
 15 16  1  0
  3  4  2  0
 16 17  2  0
 17 12  1  0
  4  7  1  0
 15 18  1  0
  7  8  1  0
 18 19  1  0
  8  9  1  0
 19 20  2  0
  9 10  2  0
 19 21  1  0
 10  6  1  0
 21 22  1  0
  1  2  2  0
 22 23  2  0
  8 11  1  0
 23 24  1  0
  4  5  1  0
 24 25  2  0
  5 12  1  0
 25 26  1  0
  6  7  2  0
 26 27  2  0
 27 22  1  0
 12 13  2  0
 24 28  1  0
  6  1  1  0
 13 14  1  0
  2  3  1  0
 28 29  1  0
 28 30  1  0
 28 31  1  0
 14 15  2  0
 16 32  1  0
M  END