
  Mrv0541 04051115152D          

 26 28  0  0  0  0            999 V2000
    3.8778   -1.6286    0.0000 N   0  0  0  0  0  0  0  0  0  0  0  0
    3.8778   -0.8036    0.0000 C   0  0  1  0  0  0  0  0  0  0  0  0
    3.1633   -0.3911    0.0000 C   0  0  0  0  0  0  0  0  0  0  0  0
    2.4488   -0.8036    0.0000 C   0  0  0  0  0  0  0  0  0  0  0  0
    1.7344   -0.3911    0.0000 S   0  0  0  0  0  0  0  0  0  0  0  0
    4.5922   -0.3911    0.0000 C   0  0  0  0  0  0  0  0  0  0  0  0
    5.3067   -0.8036    0.0000 O   0  0  0  0  0  0  0  0  0  0  0  0
    4.5922    0.4339    0.0000 O   0  0  0  0  0  0  0  0  0  0  0  0
    1.0199   -0.8036    0.0000 C   0  0  0  0  0  0  0  0  0  0  0  0
    0.3054   -0.3911    0.0000 C   0  0  1  0  0  0  0  0  0  0  0  0
   -0.4483   -0.7266    0.0000 O   0  0  0  0  0  0  0  0  0  0  0  0
    0.2192    0.4294    0.0000 C   0  0  1  0  0  0  0  0  0  0  0  0
    0.8323    0.9815    0.0000 O   0  0  0  0  0  0  0  0  0  0  0  0
   -0.5878    0.6010    0.0000 C   0  0  1  0  0  0  0  0  0  0  0  0
   -0.9234    1.3546    0.0000 O   0  0  0  0  0  0  0  0  0  0  0  0
   -1.0003   -0.1135    0.0000 C   0  0  2  0  0  0  0  0  0  0  0  0
   -1.8208   -0.1998    0.0000 N   0  0  0  0  0  0  0  0  0  0  0  0
   -2.2333   -0.9142    0.0000 C   0  0  0  0  0  0  0  0  0  0  0  0
   -3.0403   -0.7427    0.0000 N   0  0  0  0  0  0  0  0  0  0  0  0
   -3.1265    0.0778    0.0000 C   0  0  0  0  0  0  0  0  0  0  0  0
   -3.7939    0.5627    0.0000 C   0  0  0  0  0  0  0  0  0  0  0  0
   -4.5476    0.2271    0.0000 N   0  0  0  0  0  0  0  0  0  0  0  0
   -3.7077    1.3832    0.0000 N   0  0  0  0  0  0  0  0  0  0  0  0
   -2.9540    1.7187    0.0000 C   0  0  0  0  0  0  0  0  0  0  0  0
   -2.2866    1.2338    0.0000 N   0  0  0  0  0  0  0  0  0  0  0  0
   -2.3728    0.4133    0.0000 C   0  0  0  0  0  0  0  0  0  0  0  0
  2  1  1  1  0  0  0
  2  3  1  0  0  0  0
  6  2  1  0  0  0  0
  3  4  1  0  0  0  0
  4  5  1  0  0  0  0
  9  5  1  0  0  0  0
  6  7  2  0  0  0  0
  6  8  1  0  0  0  0
 10  9  1  1  0  0  0
 10 11  1  0  0  0  0
 12 10  1  0  0  0  0
 16 11  1  0  0  0  0
 12 13  1  6  0  0  0
 14 12  1  0  0  0  0
 14 15  1  6  0  0  0
 16 14  1  0  0  0  0
 16 17  1  1  0  0  0
 18 17  1  0  0  0  0
 26 17  1  0  0  0  0
 18 19  2  0  0  0  0
 20 19  1  0  0  0  0
 20 21  1  0  0  0  0
 26 20  2  0  0  0  0
 21 22  1  0  0  0  0
 21 23  2  0  0  0  0
 24 23  1  0  0  0  0
 24 25  2  0  0  0  0
 26 25  1  0  0  0  0
M  END