
          03140815512D 1   1.00000     0.00000     0

 36 38  0     1  0            999 V2000
   24.3035  -15.3365    0.0000 C   0  0  0  0  0  0           0  0  0
   24.3035  -16.1649    0.0000 C   0  0  0  0  0  0           0  0  0
   25.0191  -16.5771    0.0000 N   0  0  0  0  0  0           0  0  0
   25.7347  -16.1649    0.0000 C   0  0  0  0  0  0           0  0  0
   25.7347  -15.3365    0.0000 C   0  0  0  0  0  0           0  0  0
   25.0191  -14.9201    0.0000 N   0  0  0  0  0  0           0  0  0
   23.5844  -14.9264    0.0000 C   0  0  0  0  0  0           0  0  0
   26.4520  -16.5823    0.0000 O   0  0  0  0  0  0           0  0  0
   26.4538  -14.9264    0.0000 C   0  0  0  0  0  0           0  0  0
   27.1706  -15.3407    0.0000 C   0  0  0  0  0  0           0  0  0
   27.8857  -14.9306    0.0000 C   0  0  0  0  0  0           0  0  0
   28.6024  -15.3449    0.0000 C   0  0  0  0  0  0           0  0  0
   29.3217  -14.9348    0.0000 N   0  0  0  0  0  0           0  0  0
   30.0333  -15.3507    0.0000 C   0  0  0  0  0  0           0  0  0
   30.7498  -14.1166    0.0000 N   0  0  0  0  0  0           0  0  0
   30.7457  -14.9409    0.0000 C   0  0  1  0  0  0           0  0  0
   31.4589  -15.3565    0.0000 C   0  0  0  0  0  0           0  0  0
   32.1720  -14.9479    0.0000 C   0  0  0  0  0  0           0  0  0
   32.1760  -14.1236    0.0000 C   0  0  0  0  0  0           0  0  0
   32.8933  -13.7151    0.0000 C   0  0  0  0  0  0           0  0  0
   33.6065  -14.1307    0.0000 C   0  0  0  0  0  0           0  0  0
   34.3237  -13.7221    0.0000 O   0  0  0  0  0  0           0  0  0
   33.6024  -14.9550    0.0000 C   0  0  0  0  0  0           0  0  0
   32.8852  -15.3635    0.0000 C   0  0  0  0  0  0           0  0  0
   30.0286  -16.1738    0.0000 O   0  0  0  0  0  0           0  0  0
   32.8812  -16.1878    0.0000 C   0  0  0  0  0  0           0  0  0
   31.4670  -13.7080    0.0000 C   0  0  0  0  0  0           0  0  0
   23.5899  -16.5774    0.0000 C   0  0  0  0  0  0           0  0  0
   23.5904  -17.4016    0.0000 C   0  0  0  0  0  0           0  0  0
   22.8754  -17.8133    0.0000 C   0  0  0  0  0  0           0  0  0
   22.8755  -18.6367    0.0000 C   0  0  0  0  0  0           0  0  0
   23.5901  -19.0494    0.0000 C   0  0  0  0  0  0           0  0  0
   24.3060  -18.6324    0.0000 C   0  0  0  0  0  0           0  0  0
   24.3024  -17.8103    0.0000 C   0  0  0  0  0  0           0  0  0
   25.0148  -17.3956    0.0000 C   0  0  0  0  0  0           0  0  0
   22.1617  -17.4007    0.0000 C   0  0  0  0  0  0           0  0  0
  3  4  1  0     0  0
 10 11  1  0     0  0
  4  5  1  0     0  0
 11 12  1  0     0  0
  5  6  2  0     0  0
 12 13  1  0     0  0
 16 15  1  1     0  0
 14 16  1  0     0  0
 16 17  1  0     0  0
 17 18  1  0     0  0
 18 19  2  0     0  0
 19 20  1  0     0  0
 20 21  2  0     0  0
 21 22  1  0     0  0
 21 23  1  0     0  0
 23 24  2  0     0  0
 18 24  1  0     0  0
 14 25  2  0     0  0
 24 26  1  0     0  0
 19 27  1  0     0  0
  2 28  1  0     0  0
 13 14  1  0     0  0
 28 29  1  0     0  0
  1  7  1  0     0  0
 29 30  2  0     0  0
  1  2  2  0     0  0
 30 31  1  0     0  0
  4  8  2  0     0  0
 31 32  2  0     0  0
  1  6  1  0     0  0
 32 33  1  0     0  0
  5  9  1  0     0  0
 33 34  2  0     0  0
 34 29  1  0     0  0
  2  3  1  0     0  0
 34 35  1  0     0  0
  9 10  1  0     0  0
 30 36  1  0     0  0
M  END