
  SciTegic02271514372D

 24 26  0  0  0  0            999 V2000
   12.0103   -5.6297    0.0000 C   0  0
   11.3084   -6.0481    0.0000 C   0  0
   10.5943   -5.6482    0.0000 C   0  0
   10.5843   -4.8335    0.0000 C   0  0
   11.2863   -4.4151    0.0000 C   0  0
   11.9982   -4.8114    0.0000 C   0  0
   12.7276   -6.0276    0.0000 S   0  0
   13.1361   -6.7326    0.0000 O   0  0
   13.4325   -5.6190    0.0000 N   0  0
   15.5557   -6.8448    0.0000 C   0  0
   15.5557   -6.0276    0.0000 C   0  0
   14.8507   -7.2534    0.0000 N   0  0
   14.8507   -5.6190    0.0000 N   0  0
   14.1416   -6.0276    0.0000 C   0  0
   14.1416   -6.8448    0.0000 C   0  0
   16.8130   -6.4362    0.0000 C   0  0
   16.3329   -7.0953    0.0000 N   0  0
   16.3329   -5.7729    0.0000 N   0  0
   17.6302   -6.4362    0.0000 O   0  0
   13.4325   -7.2534    0.0000 O   0  0
   13.4325   -8.0706    0.0000 C   0  0
    9.8924   -6.0667    0.0000 Cl  0  0
   11.3205   -6.8664    0.0000 Cl  0  0
   12.3115   -6.7315    0.0000 O   0  0
  1  2  1  0
  2  3  2  0
  3  4  1  0
  4  5  2  0
  5  6  1  0
  1  6  2  0
  7  8  2  0
  7  9  1  0
  1  7  1  0
 10 11  1  0
 10 12  2  0
 11 13  2  0
 13 14  1  0
 14 15  2  0
 12 15  1  0
 16 17  1  0
 16 18  1  0
 10 17  1  0
 11 18  1  0
 16 19  2  0
 20 21  1  0
 15 20  1  0
  9 14  1  0
  3 22  1  0
  2 23  1  0
  7 24  2  0
M  END