
  SciTegic04071410272D

 26 28  0  0  0  0            999 V2000
    1.2966    0.8145    0.0000 C   0  0  2  0  0  0
    0.2507    0.0119    0.0000 C   0  0  2  0  0  0
    0.7552    0.4362    0.0000 C   0  0
    1.7152    0.4469    0.0000 C   0  0  2  0  0  0
    1.8464    1.2505    0.0000 N   0  3
    0.3776    0.8138    0.0000 C   0  0
    1.7622   -0.5400    0.0000 C   0  0
    1.3580   -0.1386    0.0000 C   0  0
   -0.1551   -0.7064    0.0000 C   0  0
   -0.9801   -0.7141    0.0000 C   0  0
   -1.3859   -1.4324    0.0000 C   0  0
   -1.3992   -0.0035    0.0000 C   0  0
    1.6207    1.5732    0.0000 H   0  0
    2.2812    1.0472    0.0000 H   0  0
    2.6086    1.5664    0.0000 C   0  0
    1.7511    2.0700    0.0000 C   0  0
   -2.2205    0.0750    0.0000 C   0  0
   -2.3996    0.8804    0.0000 C   0  0
   -1.6890    1.2995    0.0000 C   0  0
   -1.0707    0.7533    0.0000 S   0  0
   -1.0433   -2.1829    0.0000 S   0  0
   -1.6512   -2.7406    0.0000 C   0  0
   -2.3695   -2.3348    0.0000 C   0  0
   -2.2055   -1.5263    0.0000 C   0  0
    0.9459   -0.7195    0.0000 C   0  0
    4.8478    0.0000    0.0000 Br  0  5
 10 12  1  0
  3  4  1  0
  1 13  1  6
  4  5  1  0
  4 14  1  1
  1  5  1  0
  5 15  1  0
  1  6  1  0
  5 16  1  0
 12 17  2  0
  6  2  1  0
  4  7  1  0
  1  8  1  0
 17 18  1  0
 18 19  2  0
 19 20  1  0
 20 12  1  0
 11 21  1  0
  2  9  1  1
  9 10  2  0
 21 22  1  0
 22 23  2  0
 23 24  1  0
 24 11  2  0
 10 11  1  0
  7 25  1  0
  8 25  1  0
  2  3  1  0
M  CHG  2   5   1  26  -1
M  END