
          05080814042D 1   1.00000     0.00000     0

 34 38  0     1  0            999 V2000
   -4.8520  -14.7642    0.0000 C   0  0  0  0  0  0           0  0  0
   -5.5626  -15.1790    0.0000 C   0  0  0  0  0  0           0  0  0
   -5.5556  -16.0053    0.0000 C   0  0  0  0  0  0           0  0  0
   -4.8419  -16.4087    0.0000 C   0  0  0  0  0  0           0  0  0
   -4.1387  -15.1713    0.0000 C   0  0  0  0  0  0           0  0  0
   -4.1326  -15.9990    0.0000 C   0  0  0  0  0  0           0  0  0
   -3.4169  -16.4052    0.0000 C   0  0  0  0  0  0           0  0  0
   -3.4290  -14.7500    0.0000 C   0  0  0  0  0  0           0  0  0
   -2.7086  -15.1608    0.0000 C   0  0  2  0  0  0           0  0  0
   -2.7041  -15.9904    0.0000 C   0  0  2  0  0  0           0  0  0
   -1.9873  -16.3990    0.0000 N   0  0  3  0  0  0           0  0  0
   -1.2706  -15.9826    0.0000 C   0  0  0  0  0  0           0  0  0
   -1.2752  -15.1530    0.0000 C   0  0  1  0  0  0           0  0  0
   -1.9964  -14.7399    0.0000 C   0  0  0  0  0  0           0  0  0
   -2.7165  -14.3320    0.0000 H   0  0  0  0  0  0           0  0  0
   -2.7123  -16.8152    0.0000 H   0  0  0  0  0  0           0  0  0
   -0.5625  -14.7374    0.0000 C   0  0  0  0  0  0           0  0  0
    0.1537  -15.1466    0.0000 N   0  0  3  0  0  0           0  0  0
   -0.5662  -13.9124    0.0000 O   0  0  0  0  0  0           0  0  0
    0.1514  -15.9748    0.0000 C   0  0  0  0  0  0           0  0  0
    0.8635  -16.3839    0.0000 C   0  0  0  0  0  0           0  0  0
    1.5785  -15.9718    0.0000 N   0  0  3  0  0  0           0  0  0
    1.5768  -15.1458    0.0000 C   0  0  0  0  0  0           0  0  0
    0.8600  -14.7322    0.0000 C   0  0  0  0  0  0           0  0  0
   -4.8559  -13.9392    0.0000 O   0  0  0  0  0  0           0  0  0
   -5.5723  -13.5302    0.0000 C   0  0  0  0  0  0           0  0  0
   -1.9840  -17.2238    0.0000 C   0  0  0  0  0  0           0  0  0
    2.2932  -16.3837    0.0000 C   0  0  0  0  0  0           0  0  0
    2.2893  -17.2078    0.0000 C   0  0  0  0  0  0           0  0  0
    3.0031  -17.6197    0.0000 C   0  0  0  0  0  0           0  0  0
    3.7182  -17.2067    0.0000 C   0  0  0  0  0  0           0  0  0
    3.7150  -16.3775    0.0000 C   0  0  0  0  0  0           0  0  0
    3.0005  -15.9694    0.0000 N   0  0  0  0  0  0           0  0  0
    4.4276  -15.9621    0.0000 O   0  0  0  0  0  0           0  0  0
 10 16  1  1     0  0
  6  7  1  0     0  0
 13 17  1  1     0  0
  7 10  1  0     0  0
 17 18  1  0     0  0
  9  8  1  0     0  0
 17 19  2  0     0  0
 18 20  1  0     0  0
  9 10  1  0     0  0
  3  4  2  0     0  0
  4  6  1  0     0  0
  5  6  2  0     0  0
  1  2  2  0     0  0
 18 24  1  0     0  0
 20 21  1  0     0  0
 21 22  1  0     0  0
 22 23  1  0     0  0
 23 24  1  0     0  0
  5  1  1  0     0  0
  1 25  1  0     0  0
  2  3  1  0     0  0
 25 26  1  0     0  0
  9 14  1  0     0  0
 11 27  1  0     0  0
 10 11  1  0     0  0
 22 28  1  0     0  0
 11 12  1  0     0  0
 28 29  2  0     0  0
 12 13  1  0     0  0
 29 30  1  0     0  0
 13 14  1  0     0  0
 30 31  2  0     0  0
 31 32  1  0     0  0
  9 15  1  6     0  0
 32 33  1  0     0  0
 33 28  1  0     0  0
  5  8  1  0     0  0
 32 34  2  0     0  0
M  END