
  SciTegic12231509382D

 20 22  0  0  0  0            999 V2000
    0.0000   -0.4191    0.0000 C   0  0
    0.4092   -0.9082    0.0000 C   0  0  2  0  0  0
    0.0000    0.4191    0.0000 C   0  0
   -0.8184   -0.8384    0.0000 C   0  0
   -1.5569   -0.4191    0.0000 C   0  0
    1.6168    0.0000    0.0000 N   0  0
   -1.5569    0.4191    0.0000 C   0  0
   -0.8184    0.8384    0.0000 C   0  0
    1.2275   -0.7785    0.0000 C   0  0
    0.1197   -1.6809    0.0000 C   0  0
    0.4292    0.9281    0.0000 C   0  0
    1.2375    0.7685    0.0000 C   0  0
   -2.1271    0.7512    0.0000 Br  0  0
   -2.1271   -0.7512    0.0000 O   0  0
    2.2766   -0.0017    0.0000 C   0  0
    0.6459   -2.3163    0.0000 C   0  0
   -0.6934   -1.8192    0.0000 C   0  0
   -0.9804   -2.5924    0.0000 C   0  0
    0.3588   -3.0895    0.0000 C   0  0
   -0.4543   -3.2276    0.0000 C   0  0
  1  2  1  0
  1  3  1  0
  1  4  2  0
  4  5  1  0
  5  7  2  0
  3  8  2  0
  7  8  1  0
  2  9  1  0
  6  9  1  0
  2 10  1  6
  3 11  1  0
  6 12  1  0
 11 12  1  0
  7 13  1  0
  5 14  1  0
  6 15  1  0
 10 16  2  0
 10 17  1  0
 17 18  2  0
 16 19  1  0
 18 20  1  0
 19 20  2  0
M  END