
  SciTegic04191617032D

 25 28  0  0  0  0            999 V2000
   -9.0382    6.8688    0.0000 C   0  0
   -9.7984    5.5815    0.0000 C   0  0
   -9.0575    4.2546    0.0000 C   0  0
   -7.5185    6.8606    0.0000 C   0  0
   -6.7933    5.5431    0.0000 C   0  0
   -7.5535    4.2558    0.0000 C   0  0
   -6.5607    3.1402    0.0000 C   0  0
   -5.2049    3.7560    0.0000 N   0  0
   -5.3370    5.2124    0.0000 C   0  0
   -4.4340    6.0028    0.0000 O   0  0
   -6.7507    8.1498    0.0000 C   0  0
   -5.5508    8.1331    0.0000 N   0  0
   -7.3357    9.1975    0.0000 O   0  0
   -3.9067    3.0027    0.0000 C   0  0
   -3.9091    1.5019    0.0000 C   0  0
   -2.6111    0.7486    0.0000 N   0  0
   -2.6111   -0.7486    0.0000 C   0  0
   -1.2964   -1.4973    0.0000 C   0  0
   -1.2964    1.4973    0.0000 C   0  0
    0.0000    0.7486    0.0000 C   0  0
    0.0000   -0.7486    0.0000 C   0  0
    1.2964   -1.4973    0.0000 C   0  0
    2.5929   -0.7486    0.0000 C   0  0
    2.5929    0.7486    0.0000 C   0  0
    1.2964    1.4973    0.0000 C   0  0
  1  2  2  0
  2  3  1  0
  3  6  2  0
  5  4  2  0
  4  1  1  0
  5  6  1  0
  6  7  1  0
  7  8  1  0
  8  9  1  0
  9  5  1  0
  9 10  2  0
 11 12  1  0
 11 13  2  0
  4 11  1  0
  8 14  1  0
 14 15  1  0
 15 16  1  0
 16 17  1  0
 16 19  1  0
 17 18  1  0
 18 21  1  0
 19 20  1  0
 20 21  2  0
 21 22  1  0
 22 23  2  0
 23 24  1  0
 24 25  2  0
 25 20  1  0
M  END