
          11280715532D 1   1.00000     0.00000     0

 11 12  0     0  0            999 V2000
    4.7966   -9.2728    0.0000 C   0  0  0  0  0  0           0  0  0
    4.7955  -10.1000    0.0000 C   0  0  0  0  0  0           0  0  0
    5.5098  -10.5129    0.0000 C   0  0  0  0  0  0           0  0  0
    5.5081   -8.8602    0.0000 C   0  0  0  0  0  0           0  0  0
    6.2229   -9.2695    0.0000 C   0  0  0  0  0  0           0  0  0
    6.2230  -10.1001    0.0000 C   0  0  0  0  0  0           0  0  0
    7.0130  -10.3567    0.0000 C   0  0  0  0  0  0           0  0  0
    7.5012   -9.6847    0.0000 O   0  0  0  0  0  0           0  0  0
    7.0129   -9.0128    0.0000 B   0  0  0  0  0  0           0  0  0
    7.2678   -8.2282    0.0000 O   0  0  0  0  0  0           0  0  0
    4.0807  -10.5119    0.0000 F   0  0  0  0  0  0           0  0  0
  2  3  1  0     0  0
  3  6  2  0     0  0
  1  2  2  0     0  0
  5  4  2  0     0  0
  6  7  1  0     0  0
  7  8  1  0     0  0
  8  9  1  0     0  0
  9  5  1  0     0  0
  4  1  1  0     0  0
  9 10  1  0     0  0
  5  6  1  0     0  0
  2 11  1  0     0  0
M  END