
  CDK    9/16/09,9:51

 32 35  0  0  0  0  0  0  0  0999 V2000
   11.4694  -24.5709    0.0000 C   0  0  0  0  0  0  0  0  0  0  0  0
   11.0760  -25.3012    0.0000 N   0  0  0  0  0  0  0  0  0  0  0  0
   11.5093  -26.0032    0.0000 C   0  0  0  0  0  0  0  0  0  0  0  0
   12.3380  -25.9811    0.0000 C   0  0  0  0  0  0  0  0  0  0  0  0
   12.7315  -25.2508    0.0000 N   0  0  0  0  0  0  0  0  0  0  0  0
   12.2962  -24.5425    0.0000 C   0  0  0  0  0  0  0  0  0  0  0  0
   13.5561  -25.2274    0.0000 C   0  0  0  0  0  0  0  0  0  0  0  0
   13.9888  -25.9299    0.0000 C   0  0  0  0  0  0  0  0  0  0  0  0
   13.6717  -26.6913    0.0000 C   0  0  0  0  0  0  0  0  0  0  0  0
   14.3003  -27.2257    0.0000 S   0  0  0  0  0  0  0  0  0  0  0  0
   15.0028  -26.7931    0.0000 C   0  0  0  0  0  0  0  0  0  0  0  0
   14.8084  -25.9914    0.0000 C   0  0  0  0  0  0  0  0  0  0  0  0
   15.3422  -25.3624    0.0000 C   0  0  0  0  0  0  0  0  0  0  0  0
   16.1539  -25.5102    0.0000 O   0  0  0  0  0  0  0  0  0  0  0  0
   15.0644  -24.5855    0.0000 C   0  0  0  0  0  0  0  0  0  0  0  0
   15.5976  -23.9598    0.0000 C   0  0  0  0  0  0  0  0  0  0  0  0
   15.3205  -23.1835    0.0000 C   0  0  0  0  0  0  0  0  0  0  0  0
   14.5080  -23.0350    0.0000 C   0  0  0  0  0  0  0  0  0  0  0  0
   13.9734  -23.6690    0.0000 C   0  0  0  0  0  0  0  0  0  0  0  0
   14.2534  -24.4427    0.0000 C   0  0  0  0  0  0  0  0  0  0  0  0
   14.2293  -22.2585    0.0000 Cl  0  0  0  0  0  0  0  0  0  0  0  0
   15.7658  -27.1070    0.0000 N   0  0  0  0  0  0  0  0  0  0  0  0
   10.2513  -25.3255    0.0000 C   0  0  0  0  0  0  0  0  0  0  0  0
    9.8227  -24.6213    0.0000 C   0  0  0  0  0  0  0  0  0  0  0  0
    8.9988  -24.6452    0.0000 C   0  0  0  0  0  0  0  0  0  0  0  0
    9.8669  -26.0490    0.0000 C   0  0  0  0  0  0  0  0  0  0  0  0
    9.0445  -26.0764    0.0000 C   0  0  0  0  0  0  0  0  0  0  0  0
    8.6063  -25.3765    0.0000 C   0  0  0  0  0  0  0  0  0  0  0  0
    7.7808  -25.4068    0.0000 C   0  0  0  0  0  0  0  0  0  0  0  0
    6.9531  -25.4060    0.0000 F   0  0  0  0  0  0  0  0  0  0  0  0
    7.7956  -26.2316    0.0000 F   0  0  0  0  0  0  0  0  0  0  0  0
    7.7678  -24.5818    0.0000 F   0  0  0  0  0  0  0  0  0  0  0  0
  1  2  1  0  0  0  0 
 15 16  2  0  0  0  0 
  7  8  1  0  0  0  0 
 16 17  1  0  0  0  0 
  8  9  2  0  0  0  0 
 17 18  2  0  0  0  0 
  1  6  1  0  0  0  0 
 18 19  1  0  0  0  0 
  2  3  1  0  0  0  0 
 19 20  2  0  0  0  0 
 20 15  1  0  0  0  0 
  3  4  1  0  0  0  0 
 18 21  1  0  0  0  0 
  4  5  1  0  0  0  0 
 11 22  1  0  0  0  0 
  9 10  1  0  0  0  0 
  2 23  1  0  0  0  0 
 10 11  1  0  0  0  0 
 23 24  2  0  0  0  0 
 11 12  2  0  0  0  0 
 24 25  1  0  0  0  0 
 25 28  2  0  0  0  0 
 12  8  1  0  0  0  0 
 27 26  2  0  0  0  0 
 26 23  1  0  0  0  0 
 27 28  1  0  0  0  0 
  5  6  1  0  0  0  0 
 12 13  1  0  0  0  0 
 28 29  1  0  0  0  0 
 13 14  2  0  0  0  0 
 29 30  1  0  0  0  0 
  5  7  1  0  0  0  0 
 29 31  1  0  0  0  0 
 13 15  1  0  0  0  0 
 29 32  1  0  0  0  0 
M  END