
          11280714442D 1   1.00000     0.00000     0

 19 19  0     0  0            999 V2000
    5.9250   -0.9250    0.0000 C   0  0  0  0  0  0           0  0  0
    5.2292   -1.3667    0.0000 C   0  0  0  0  0  0           0  0  0
    6.6542   -1.3042    0.0000 O   0  0  0  0  0  0           0  0  0
    9.5125   -1.1750    0.0000 N   0  0  0  0  0  0           0  0  0
    5.8875   -0.1042    0.0000 O   0  0  0  0  0  0           0  0  0
   10.2042   -0.7292    0.0000 C   0  0  3  0  0  0           0  0  0
    4.4917   -0.9875    0.0000 C   0  0  0  0  0  0           0  0  0
    5.2667   -2.1917    0.0000 C   0  0  0  0  0  0           0  0  0
    8.0792   -1.2417    0.0000 C   0  0  3  0  0  0           0  0  0
    7.3500   -0.8625    0.0000 C   0  0  0  0  0  0           0  0  0
    8.7792   -0.7917    0.0000 C   0  0  0  0  0  0           0  0  0
    3.8417   -2.2542    0.0000 C   0  0  0  0  0  0           0  0  0
    3.1417   -2.7042    0.0000 N   0  0  0  0  0  0           0  0  0
    4.5792   -2.6375    0.0000 C   0  0  0  0  0  0           0  0  0
    3.8042   -1.4375    0.0000 C   0  0  0  0  0  0           0  0  0
    8.1167   -2.0667    0.0000 O   0  0  0  0  0  0           0  0  0
   10.1667    0.0958    0.0000 C   0  0  0  0  0  0           0  0  0
   10.7625   -0.1250    0.0000 C   0  0  0  0  0  0           0  0  0
   10.9375   -1.1125    0.0000 C   0  0  0  0  0  0           0  0  0
  2  1  1  0     0  0
  3  1  1  0     0  0
  4 11  1  0     0  0
  5  1  2  0     0  0
  6  4  1  0     0  0
  7  2  2  0     0  0
  8  2  1  0     0  0
  9 10  1  0     0  0
 10  3  1  0     0  0
 11  9  1  0     0  0
 12 14  1  0     0  0
 13 12  1  0     0  0
 14  8  2  0     0  0
 15  7  1  0     0  0
 16  9  1  0     0  0
 17  6  1  0     0  0
 18  6  1  0     0  0
 19  6  1  0     0  0
 12 15  2  0     0  0
M  END