
          11280715082D 1   1.00000     0.00000     0

 27 29  0     0  0            999 V2000
   -3.5458   -1.6042    0.0000 N   0  0  3  0  0  0           0  0  0
   -4.2583   -2.0167    0.0000 C   0  0  0  0  0  0           0  0  0
   -2.8333   -2.0167    0.0000 C   0  0  0  0  0  0           0  0  0
   -2.8333   -2.8417    0.0000 C   0  0  0  0  0  0           0  0  0
   -3.5458   -3.2542    0.0000 C   0  0  3  0  0  0           0  0  0
   -4.2583   -2.8417    0.0000 C   0  0  0  0  0  0           0  0  0
   -0.6833   -3.2667    0.0000 C   0  0  0  0  0  0           0  0  0
    0.0417   -3.6875    0.0000 C   0  0  0  0  0  0           0  0  0
    2.9042   -5.3667    0.0000 C   0  0  0  0  0  0           0  0  0
   -2.1208   -1.6042    0.0000 C   0  0  0  0  0  0           0  0  0
   -4.9750   -1.6042    0.0000 O   0  0  0  0  0  0           0  0  0
   -2.1208   -3.2542    0.0000 C   0  0  0  0  0  0           0  0  0
    2.1917   -4.9500    0.0000 C   0  0  0  0  0  0           0  0  0
   -3.5375   -0.7792    0.0000 C   0  0  3  0  0  0           0  0  0
   -1.4000   -2.8417    0.0000 C   0  0  0  0  0  0           0  0  0
    3.6250   -4.9542    0.0000 O   0  0  0  0  0  0           0  0  0
    0.7625   -4.1042    0.0000 C   0  0  0  0  0  0           0  0  0
    1.4667   -5.3542    0.0000 C   0  0  0  0  0  0           0  0  0
    2.1917   -4.1125    0.0000 C   0  0  0  0  0  0           0  0  0
   -1.4000   -2.0167    0.0000 C   0  0  0  0  0  0           0  0  0
    2.9000   -6.1917    0.0000 O   0  0  0  0  0  0           0  0  0
    1.4792   -3.6917    0.0000 C   0  0  0  0  0  0           0  0  0
    0.7500   -4.9375    0.0000 C   0  0  0  0  0  0           0  0  0
   -2.9583   -3.8417    0.0000 C   0  0  0  0  0  0           0  0  0
   -4.3458   -3.4750    0.0000 C   0  0  0  0  0  0           0  0  0
   -2.8208   -0.3667    0.0000 C   0  0  0  0  0  0           0  0  0
   -4.2500   -0.3667    0.0000 C   0  0  0  0  0  0           0  0  0
  2  1  1  0     0  0
  3  1  1  0     0  0
  4  3  2  0     0  0
  5  4  1  0     0  0
  6  2  1  0     0  0
  7 15  1  0     0  0
  8  7  3  0     0  0
  9 13  1  0     0  0
 10  3  1  0     0  0
 11  2  2  0     0  0
 12  4  1  0     0  0
 13 18  2  0     0  0
 14  1  1  0     0  0
 15 20  1  0     0  0
 16  9  2  0     0  0
 17  8  1  0     0  0
 18 23  1  0     0  0
 19 22  2  0     0  0
 20 10  2  0     0  0
 21  9  1  0     0  0
 22 17  1  0     0  0
 23 17  2  0     0  0
 24  5  1  0     0  0
 25  5  1  0     0  0
 26 14  1  0     0  0
 27 14  1  0     0  0
  6  5  1  0     0  0
 12 15  2  0     0  0
 19 13  1  0     0  0
M  END