
          11280714492D 1   1.00000     0.00000     0

 35 38  0     1  0            999 V2000
    5.5917   -4.6625    0.0000 N   0  0  0  0  0  0           0  0  0
    6.1417   -5.2792    0.0000 C   0  0  0  0  0  0           0  0  0
    4.8417   -5.0042    0.0000 C   0  0  0  0  0  0           0  0  0
    4.9292   -5.8250    0.0000 O   0  0  0  0  0  0           0  0  0
    5.7292   -5.9917    0.0000 C   0  0  0  0  0  0           0  0  0
    6.9667   -5.1917    0.0000 C   0  0  0  0  0  0           0  0  0
    4.1292   -4.5917    0.0000 C   0  0  2  0  0  0           0  0  0
    4.1292   -3.7667    0.0000 C   0  0  2  0  0  0           0  0  0
    4.8417   -3.3542    0.0000 C   0  0  0  0  0  0           0  0  0
    4.8417   -2.5292    0.0000 C   0  0  0  0  0  0           0  0  0
    7.7042   -2.5250    0.0000 C   0  0  0  0  0  0           0  0  0
    5.5542   -2.1125    0.0000 C   0  0  0  0  0  0           0  0  0
    7.3042   -4.4375    0.0000 O   0  0  0  0  0  0           0  0  0
    8.4167   -2.1125    0.0000 O   0  0  0  0  0  0           0  0  0
    7.4542   -5.8625    0.0000 N   0  0  0  0  0  0           0  0  0
    6.2667   -2.5292    0.0000 C   0  0  0  0  0  0           0  0  0
    6.9792   -2.1125    0.0000 C   0  0  0  0  0  0           0  0  0
    7.7042   -3.3500    0.0000 O   0  0  0  0  0  0           0  0  0
    3.3417   -3.5125    0.0000 C   0  0  0  0  0  0           0  0  0
    3.3417   -4.8500    0.0000 C   0  0  0  0  0  0           0  0  0
    2.8542   -4.1792    0.0000 C   0  0  0  0  0  0           0  0  0
    4.1292   -2.1125    0.0000 C   0  0  0  0  0  0           0  0  0
    8.5667   -8.6167    0.0000 C   0  0  3  0  0  0           0  0  0
    5.5542   -1.2875    0.0000 C   0  0  0  0  0  0           0  0  0
    8.2667   -5.7750    0.0000 C   0  0  0  0  0  0           0  0  0
    8.9042   -7.8625    0.0000 C   0  0  0  0  0  0           0  0  0
    7.9917   -9.2000    0.0000 C   0  0  0  0  0  0           0  0  0
    8.5292   -9.3250    0.0000 C   0  0  0  0  0  0           0  0  0
    8.7542   -6.4417    0.0000 C   0  0  0  0  0  0           0  0  0
    8.4167   -7.2000    0.0000 C   0  0  0  0  0  0           0  0  0
    4.1292   -1.2917    0.0000 C   0  0  0  0  0  0           0  0  0
    4.8417   -0.8750    0.0000 C   0  0  0  0  0  0           0  0  0
    8.5542  -10.0000    0.0000 C   0  0  0  0  0  0           0  0  0
    9.0917  -10.0792    0.0000 C   0  0  0  0  0  0           0  0  0
    8.5042  -10.6667    0.0000 C   0  0  0  0  0  0           0  0  0
  2  1  1  0     0  0
  3  1  2  0     0  0
  4  3  1  0     0  0
  5  2  2  0     0  0
  6  2  1  0     0  0
  7  3  1  1     0  0
  8  7  1  0     0  0
  8  9  1  1     0  0
 10  9  1  0     0  0
 11 17  1  0     0  0
 12 10  2  0     0  0
 13  6  2  0     0  0
 14 11  2  0     0  0
 15  6  1  0     0  0
 16 12  1  0     0  0
 17 16  1  0     0  0
 18 11  1  0     0  0
 19  8  1  0     0  0
 20  7  1  0     0  0
 21 20  1  0     0  0
 22 10  1  0     0  0
 23 26  1  0     0  0
 24 12  1  0     0  0
 25 15  1  0     0  0
 26 30  1  0     0  0
 27 23  1  0     0  0
 28 23  1  0     0  0
 29 25  1  0     0  0
 30 29  1  0     0  0
 31 22  2  0     0  0
 32 31  1  0     0  0
 33 27  1  0     0  0
 34 28  1  0     0  0
 35 34  1  0     0  0
  5  4  1  0     0  0
 21 19  1  0     0  0
 32 24  2  0     0  0
 33 35  1  0     0  0
M  END