
  SciTegic08011210012D

 42 48  0  0  0  0            999 V2000
    2.2576  -12.1920    0.0000 C   0  0  1  0  0  0
    3.4471  -11.5860    0.0000 N   0  0
    2.6322  -11.4570    0.0000 C   0  0
   -4.0088  -11.3445    0.0000 C   0  0
   -3.3292  -10.8760    0.0000 C   0  0
   -3.5647  -10.0848    0.0000 C   0  0
   -4.3900  -10.0643    0.0000 C   0  0
   -4.6644  -10.8429    0.0000 C   0  0
   -4.7213  -11.7638    0.0000 N   0  0
   -4.7213  -12.5889    0.0000 C   0  0
   -4.0092  -12.9972    0.0000 C   0  0  2  0  0  0
   -3.2972  -12.5889    0.0000 N   0  0
   -3.2972  -11.7638    0.0000 C   0  0
   -2.5808  -11.3543    0.0000 O   0  0
   -4.0092  -13.8223    0.0000 C   0  0
   -4.7259  -14.2335    0.0000 C   0  0
   -4.7262  -15.0578    0.0000 C   0  0
   -4.0111  -15.4711    0.0000 C   0  0
   -3.2943  -15.0542    0.0000 C   0  0
   -3.2974  -14.2312    0.0000 C   0  0
   -5.4410  -15.4700    0.0000 F   0  0
   -2.5782  -15.4642    0.0000 F   0  0
   -2.5832  -13.0024    0.0000 C   0  0
   -1.8681  -12.5910    0.0000 C   0  0
   -1.1541  -13.0045    0.0000 N   0  0
   -1.8669  -11.7659    0.0000 O   0  0
   -0.4389  -12.5930    0.0000 C   0  0
    0.2752  -13.0083    0.0000 C   0  0
    0.2725  -11.3581    0.0000 N   0  0
   -0.4391  -11.7713    0.0000 C   0  0
    0.9915  -11.7716    0.0000 C   0  0
    0.9856  -12.5950    0.0000 C   0  0
    1.7669  -12.8550    0.0000 C   0  0
    1.7765  -11.5228    0.0000 C   0  0
    3.5762  -12.4010    0.0000 C   0  0
    2.8411  -12.7736    0.0000 C   0  0
    2.7974  -13.5948    0.0000 C   0  0
    3.4880  -14.0441    0.0000 C   0  0
    4.2241  -13.6664    0.0000 C   0  0
    4.2642  -12.8465    0.0000 N   0  0
    2.2576  -10.7219    0.0000 O   0  0
   -4.7297  -13.4057    0.0000 C   0  0
 19 20  2  0
 20 15  1  0
  1 36  1  0
 17 21  1  0
 19 22  1  0
 35  2  1  0
 12 23  1  0
  2  3  1  0
 23 24  1  0
  9  4  1  0
 24 25  1  0
 10 11  1  0
 24 26  2  0
 11 12  1  0
 25 27  1  0
 12 13  1  0
 27 28  2  0
 28 32  1  0
 13  4  1  0
 31 29  1  0
  1  3  1  1
 29 30  2  0
 30 27  1  0
 31 32  2  0
 13 14  2  0
  5  6  1  0
 11 15  1  6
  6  7  1  0
 32 33  1  0
 33  1  1  0
  1 34  1  0
 34 31  1  0
 15 16  2  0
  7  8  1  0
 35 36  2  0
 16 17  1  0
 36 37  1  0
  8  4  1  0
 37 38  2  0
 17 18  2  0
 38 39  1  0
  9 10  1  0
 39 40  2  0
 40 35  1  0
 18 19  1  0
  3 41  2  0
  4  5  1  0
 11 42  1  0
M  END