
  SciTegic01111613442D

 25 26  0  0  0  0            999 V2000
    1.2990   -0.7500    0.0000 C   0  0
    1.2990    0.7500    0.0000 C   0  0
    0.0000    1.5000    0.0000 N   0  0
   -1.2990    0.7500    0.0000 C   0  0
   -1.2990   -0.7500    0.0000 C   0  0
    0.0000   -1.5000    0.0000 C   0  0
    0.5133   -2.9102    0.0000 C   0  0
   -0.4490   -4.0610    0.0000 C   0  0
    0.0662   -5.4697    0.0000 C   0  0
    1.5439   -5.7278    0.0000 C   0  0
    2.5062   -4.5772    0.0000 C   0  0
    1.9910   -3.1685    0.0000 C   0  0
    2.5973   -1.5031    0.0000 C   0  0
    2.5944   -2.7031    0.0000 O   0  0
    3.8990   -0.7562    0.0000 O   0  0
    4.9370   -1.3583    0.0000 C   0  0
   -1.7515   -3.3153    0.0000 N   0  3
   -2.7889   -3.9185    0.0000 O   0  0
   -1.7549   -2.3153    0.0000 O   0  5
    2.3383    1.3500    0.0000 C   0  0
   -2.3383    1.3500    0.0000 C   0  0
   -2.6003   -1.4978    0.0000 C   0  0
   -3.8990   -0.7455    0.0000 O   0  0
   -2.6021   -2.4978    0.0000 O   0  0
   -4.9395   -1.3434    0.0000 C   0  0
  6  7  1  0
  5  6  1  0
  1 13  1  0
 13 14  2  0
  1  2  2  0
 13 15  1  0
  7  8  2  0
 15 16  1  0
  1  6  1  0
  8  9  1  0
  2  3  1  0
 17 18  2  0
 17 19  1  0
  8 17  1  0
  9 10  2  0
  2 20  1  0
  3  4  1  0
  4 21  1  0
 10 11  1  0
  5 22  1  0
  4  5  2  0
 22 23  1  0
 11 12  2  0
 22 24  2  0
 12  7  1  0
 23 25  1  0
M  CHG  2  17   1  19  -1
M  END