
          11280715332D 1   1.00000     0.00000     0

 35 39  0     0  0            999 V2000
    3.7417   -3.1167    0.0000 N   0  0  3  0  0  0           0  0  0
    5.1667   -3.1250    0.0000 C   0  0  3  0  0  0           0  0  0
    3.7375   -2.2917    0.0000 C   0  0  0  0  0  0           0  0  0
    8.3042   -2.1042    0.0000 C   0  0  3  0  0  0           0  0  0
    7.3042   -2.6917    0.0000 N   0  0  3  0  0  0           0  0  0
    9.0167   -1.6875    0.0000 N   0  0  3  0  0  0           0  0  0
    4.4542   -3.5292    0.0000 C   0  0  0  0  0  0           0  0  0
    3.0292   -3.5292    0.0000 C   0  0  0  0  0  0           0  0  0
    5.1625   -3.9500    0.0000 C   0  0  0  0  0  0           0  0  0
    8.1042   -2.9042    0.0000 C   0  0  0  0  0  0           0  0  0
    7.5125   -1.9000    0.0000 C   0  0  0  0  0  0           0  0  0
    5.8625   -5.1875    0.0000 C   0  0  0  0  0  0           0  0  0
    5.8667   -4.3625    0.0000 C   0  0  0  0  0  0           0  0  0
    2.3167   -3.1167    0.0000 C   0  0  0  0  0  0           0  0  0
    5.1417   -5.5917    0.0000 C   0  0  0  0  0  0           0  0  0
    5.1667   -2.2917    0.0000 C   0  0  0  0  0  0           0  0  0
    4.4542   -1.8792    0.0000 C   0  0  0  0  0  0           0  0  0
    3.0292   -1.8750    0.0000 O   0  0  0  0  0  0           0  0  0
    5.8792   -2.7042    0.0000 C   0  0  0  0  0  0           0  0  0
    4.4417   -4.3500    0.0000 C   0  0  0  0  0  0           0  0  0
    2.3167   -2.2917    0.0000 C   0  0  0  0  0  0           0  0  0
    4.4292   -5.1750    0.0000 C   0  0  0  0  0  0           0  0  0
    6.5917   -3.1125    0.0000 C   0  0  0  0  0  0           0  0  0
   10.5917   -1.2125    0.0000 O   0  0  0  0  0  0           0  0  0
    6.5750   -5.6042    0.0000 Cl  0  0  0  0  0  0           0  0  0
    5.1375   -6.4167    0.0000 Cl  0  0  0  0  0  0           0  0  0
    9.2042   -0.8875    0.0000 C   0  0  0  0  0  0           0  0  0
    9.6167   -2.2542    0.0000 C   0  0  0  0  0  0           0  0  0
    1.6000   -3.5292    0.0000 C   0  0  0  0  0  0           0  0  0
   10.4042   -2.0167    0.0000 C   0  0  0  0  0  0           0  0  0
    9.9917   -0.6500    0.0000 C   0  0  0  0  0  0           0  0  0
    2.3125   -1.4667    0.0000 C   0  0  0  0  0  0           0  0  0
    1.6000   -1.8792    0.0000 C   0  0  0  0  0  0           0  0  0
    0.8875   -3.1167    0.0000 C   0  0  0  0  0  0           0  0  0
    0.8875   -2.2917    0.0000 C   0  0  0  0  0  0           0  0  0
  2  7  1  0     0  0
  3  1  1  0     0  0
  4 11  1  0     0  0
  5 23  1  0     0  0
  6  4  1  0     0  0
  7  1  1  0     0  0
  8  1  1  0     0  0
  9  2  1  0     0  0
 10  5  1  0     0  0
 11  5  1  0     0  0
 12 13  2  0     0  0
 13  9  1  0     0  0
 14  8  1  0     0  0
 15 22  2  0     0  0
 16  2  1  0     0  0
 17  3  1  0     0  0
 18  3  2  0     0  0
 19  2  1  0     0  0
 20  9  2  0     0  0
 21 14  1  0     0  0
 22 20  1  0     0  0
 23 19  1  0     0  0
 24 30  1  0     0  0
 25 12  1  0     0  0
 26 15  1  0     0  0
 27  6  1  0     0  0
 28  6  1  0     0  0
 29 14  2  0     0  0
 30 28  1  0     0  0
 31 27  1  0     0  0
 32 21  1  0     0  0
 33 21  2  0     0  0
 34 29  1  0     0  0
 35 34  2  0     0  0
 16 17  1  0     0  0
 33 35  1  0     0  0
 10  4  1  0     0  0
 12 15  1  0     0  0
 24 31  1  0     0  0
M  END