
  SciTegic01061111512D

 54 56  0  0  0  0            999 V2000
    3.5918  -15.8909    0.0000 C   0  0  1  0  0  0
    4.4177  -15.8909    0.0000 C   0  0
    4.9317  -16.5246    0.0000 C   0  0  1  0  0  0
    3.2888  -17.2467    0.0000 C   0  0
    3.1543  -16.4221    0.0000 C   0  0  2  0  0  0
    2.3237  -16.3289    0.0000 C   0  0  1  0  0  0
    1.9908  -17.0698    0.0000 C   0  0  2  0  0  0
    2.5707  -17.6497    0.0000 C   0  0
    4.7476  -17.3268    0.0000 C   0  0  1  0  0  0
    4.0014  -17.6542    0.0000 C   0  0  1  0  0  0
    4.0714  -18.4882    0.0000 O   0  0
    4.8867  -18.6883    0.0000 C   0  0
    5.2990  -17.9687    0.0000 C   0  0  1  0  0  0
    5.2086  -19.4479    0.0000 O   0  0
    5.5548  -17.1283    0.0000 O   0  0
    2.4592  -18.4682    0.0000 C   0  0
    1.1758  -17.2171    0.0000 O   0  0
    1.9083  -15.6109    0.0000 O   0  0
    5.7565  -16.5397    0.0000 O   0  0
    0.8954  -18.0008    0.0000 C   0  0
    1.3961  -18.6596    0.0000 O   0  0
    0.0810  -18.1473    0.0000 C   0  0
   -0.2397  -18.9123    0.0000 C   0  0
   -0.4156  -17.4886    0.0000 C   0  0
    0.2569  -19.5711    0.0000 C   0  0
    2.5679  -15.8358    0.0000 H   0  0
    3.4151  -18.2406    0.0000 H   0  0
    6.5774  -16.5388    0.0000 C   0  0
    6.9894  -17.2507    0.0000 O   0  0
    6.9878  -15.8261    0.0000 C   0  0
    7.8103  -15.8251    0.0000 C   0  0
    6.1208  -17.9667    0.0000 O   0  0
    5.7042  -18.6792    0.0000 C   0  0
    4.0000  -15.1708    0.0000 O   0  0
    3.0042  -15.3000    0.0000 C   0  0
    1.1917  -15.1958    0.0000 C   0  0
    1.1928  -14.3708    0.0000 O   0  0
    0.4767  -15.6074    0.0000 C   0  0
   -0.2373  -15.1939    0.0000 C   0  0
   -0.9523  -15.6055    0.0000 C   0  0
   -1.6662  -15.1921    0.0000 C   0  0
   -2.3812  -15.6036    0.0000 C   0  0
   -3.0952  -15.1902    0.0000 C   0  0
   -3.8102  -15.6017    0.0000 C   0  0
    4.7125  -14.7542    0.0000 C   0  0
    4.7079  -13.9292    0.0000 O   0  0
    5.4293  -15.1627    0.0000 C   0  0
    6.1414  -14.7462    0.0000 C   0  0
    6.8582  -15.1547    0.0000 C   0  0
    7.5703  -14.7383    0.0000 C   0  0
    8.2871  -15.1468    0.0000 C   0  0
    7.5657  -13.9133    0.0000 C   0  0
    6.8490  -13.5048    0.0000 C   0  0
    6.1368  -13.9212    0.0000 C   0  0
 23 25  1  0
  5 26  1  1
 10 27  1  6
 19 28  1  0
  5  1  1  0
 28 29  2  0
  1  2  1  0
 28 30  1  0
  2  3  1  0
 30 31  1  0
  4 10  1  0
 31 51  1  0
 13 32  1  6
  3  9  1  0
 13 33  1  0
  4  5  1  0
  1 34  1  1
  5  6  1  0
  1 35  1  0
  6  7  1  0
 18 36  1  0
  7  8  1  0
 36 37  2  0
  8  4  2  0
 36 38  1  0
  9 10  1  0
 38 39  1  0
 10 11  1  0
 39 40  1  0
 11 12  1  0
 40 41  1  0
 12 13  1  0
 41 42  1  0
 13  9  1  0
 42 43  1  0
 12 14  2  0
 43 44  1  0
  9 15  1  1
 34 45  1  0
  8 16  1  0
 45 46  2  0
  7 17  1  6
 45 47  1  0
  6 18  1  1
 47 48  1  0
  3 19  1  6
 48 49  1  0
 17 20  1  0
 49 50  1  0
 20 21  2  0
 20 22  1  0
 50 52  1  0
 22 23  2  0
 52 53  1  0
 22 24  1  0
 53 54  1  0
M  END