
  SciTegic12201612092D

 27 29  0  0  0  0            999 V2000
    0.8270    6.8150    0.0000 O   0  0
    1.9799    6.4822    0.0000 S   0  0
    2.8444    7.3145    0.0000 O   0  0
    4.9626    6.4562    0.0000 O   0  0
    5.0023    5.2569    0.0000 S   0  0
    6.0610    4.6919    0.0000 O   0  0
   -2.3155    0.7475    0.0000 C   0  0
   -2.3155   -0.7475    0.0000 C   0  0
   -1.0028   -1.5132    0.0000 C   0  0
   -1.0028    1.5132    0.0000 C   0  0
    0.2917    0.7475    0.0000 C   0  0
    0.2917   -0.7475    0.0000 C   0  0
    1.7138   -1.2033    0.0000 N   0  0
    2.5889    0.0182    0.0000 C   0  0
    1.7138    1.2033    0.0000 C   0  0
    2.1855   -2.6254    0.0000 C   0  0
    1.3877   -3.5218    0.0000 C   0  0
    3.3606   -2.8684    0.0000 O   0  0
    2.1749    2.6315    0.0000 C   0  0
    1.3751    3.8801    0.0000 C   0  0
    2.3406    5.0280    0.0000 N   0  0
    3.7308    4.4644    0.0000 N   0  0
    3.6243    2.9682    0.0000 C   0  0
    4.5369    2.1890    0.0000 C   0  0
    0.1776    3.9578    0.0000 O   0  0
    1.6915    7.6470    0.0000 C   0  0
    6.0210    5.8911    0.0000 C   0  0
  2  1  2  0
  3  2  2  0
  5  4  2  0
  6  5  2  0
  7  8  2  0
  8  9  1  0
  9 12  2  0
 11 10  2  0
 10  7  1  0
 11 12  1  0
 12 13  1  0
 13 14  1  0
 14 15  2  0
 15 11  1  0
 13 16  1  0
 16 17  1  0
 16 18  2  0
 15 19  1  0
 19 20  1  0
 20 21  1  0
 21 22  1  0
 22 23  1  0
 23 19  2  0
 23 24  1  0
 20 25  2  0
 22  5  1  0
 21  2  1  0
  2 26  1  0
  5 27  1  0
M  END