
          11280715492D 1   1.00000     0.00000     0

 31 34  0     0  0            999 V2000
   -0.5172    1.1159    0.0000 N   0  0  0  0  0  0           0  0  0
   -0.0337    0.4563    0.0000 C   0  0  0  0  0  0           0  0  0
   -0.5181   -0.2151    0.0000 C   0  0  0  0  0  0           0  0  0
   -1.3015    0.0400    0.0000 C   0  0  0  0  0  0           0  0  0
   -2.0125   -0.3722    0.0000 N   0  0  3  0  0  0           0  0  0
   -2.7304    0.0380    0.0000 C   0  0  0  0  0  0           0  0  0
   -2.7291    0.8645    0.0000 N   0  0  3  0  0  0           0  0  0
   -2.0141    1.2767    0.0000 C   0  0  0  0  0  0           0  0  0
   -1.3003    0.8623    0.0000 C   0  0  0  0  0  0           0  0  0
   -2.0118    2.1011    0.0000 O   0  0  0  0  0  0           0  0  0
   -3.4498   -0.3719    0.0000 O   0  0  0  0  0  0           0  0  0
   -3.4509    1.2859    0.0000 C   0  0  0  0  0  0           0  0  0
   -2.0124   -1.1966    0.0000 C   0  0  0  0  0  0           0  0  0
    0.7936    0.4990    0.0000 C   0  0  0  0  0  0           0  0  0
    1.2399   -0.2015    0.0000 C   0  0  0  0  0  0           0  0  0
    2.0635   -0.1676    0.0000 C   0  0  0  0  0  0           0  0  0
    2.4419    0.5620    0.0000 C   0  0  0  0  0  0           0  0  0
    2.0030    1.2591    0.0000 C   0  0  0  0  0  0           0  0  0
    1.1766    1.2258    0.0000 C   0  0  0  0  0  0           0  0  0
    3.2663    0.5933    0.0000 O   0  0  0  0  0  0           0  0  0
    3.6553    1.3229    0.0000 C   0  0  0  0  0  0           0  0  0
    4.4797    1.3540    0.0000 C   0  0  0  0  0  0           0  0  0
    4.8645    2.0836    0.0000 N   0  0  0  0  0  0           0  0  0
    4.9151    0.6598    0.0000 O   0  0  0  0  0  0           0  0  0
    5.6881    2.1154    0.0000 C   0  0  0  0  0  0           0  0  0
    6.1307    1.4190    0.0000 C   0  0  0  0  0  0           0  0  0
    6.9585    1.4499    0.0000 C   0  0  0  0  0  0           0  0  0
    7.3401    2.1841    0.0000 C   0  0  0  0  0  0           0  0  0
    6.9002    2.8807    0.0000 C   0  0  0  0  0  0           0  0  0
    6.0780    2.8464    0.0000 C   0  0  0  0  0  0           0  0  0
    8.1637    2.2188    0.0000 F   0  0  0  0  0  0           0  0  0
  4  5  1  0     0  0
 15 16  2  0     0  0
  5  6  1  0     0  0
 16 17  1  0     0  0
  6  7  1  0     0  0
 17 18  2  0     0  0
  7  8  1  0     0  0
 18 19  1  0     0  0
 19 14  2  0     0  0
  2 14  1  0     0  0
  8  9  1  0     0  0
 17 20  1  0     0  0
  1  2  1  0     0  0
 20 21  1  0     0  0
  8 10  2  0     0  0
 21 22  1  0     0  0
  2  3  2  0     0  0
 22 23  1  0     0  0
  6 11  2  0     0  0
 22 24  2  0     0  0
  3  4  1  0     0  0
 23 25  1  0     0  0
  7 12  1  0     0  0
 25 26  2  0     0  0
  9  1  1  0     0  0
 26 27  1  0     0  0
  5 13  1  0     0  0
 27 28  2  0     0  0
 28 29  1  0     0  0
  4  9  2  0     0  0
 29 30  2  0     0  0
 30 25  1  0     0  0
 14 15  1  0     0  0
 28 31  1  0     0  0
M  END