
  SciTegic01181116592D

 16 18  0  0  0  0            999 V2000
   -6.7370  -19.2025    0.0000 C   0  0
   -5.9960  -18.8647    0.0000 N   0  0
   -6.5854  -18.4569    0.0000 C   0  0
   -5.1742  -19.2132    0.0000 C   0  0  2  0  0  0
   -6.1330  -17.8446    0.0000 C   0  0
   -5.8565  -18.1320    0.0000 C   0  0
   -5.0705  -18.4744    0.0000 C   0  0  1  0  0  0
   -5.8942  -17.2515    0.0000 C   0  0
   -4.3506  -18.0714    0.0000 O   0  0
   -4.7677  -19.9312    0.0000 C   0  0
   -5.1863  -20.6420    0.0000 C   0  0
   -6.0138  -20.6313    0.0000 C   0  0
   -6.4370  -21.3414    0.0000 C   0  0
   -6.0268  -22.0603    0.0000 C   0  0
   -5.1932  -22.0646    0.0000 N   0  0
   -4.7785  -21.3540    0.0000 C   0  0
  6  7  1  0
  6  8  1  0
  7  9  1  1
  1  2  1  0
  4 10  1  6
  1  3  1  0
 10 11  1  0
  2  4  1  0
 11 12  2  0
  2  5  1  0
 12 13  1  0
  3  6  1  0
 13 14  2  0
  4  7  1  0
 14 15  1  0
  5  8  1  0
 15 16  2  0
 16 11  1  0
M  END