
  SciTegic01161211222D

 30 32  0  0  0  0            999 V2000
   -3.2575   -4.9447    0.0000 C   0  0
   -3.2591   -3.2919    0.0000 C   0  0
   -2.5443   -3.7013    0.0000 C   0  0
   -2.5410   -4.5340    0.0000 C   0  0
   -1.8222   -4.9452    0.0000 O   0  0
   -1.1022   -4.5284    0.0000 C   0  0
   -1.1053   -3.6957    0.0000 C   0  0  1  0  0  0
   -1.8288   -3.2799    0.0000 O   0  0
   -0.3921   -3.2812    0.0000 C   0  0
    0.3236   -3.6916    0.0000 N   0  0
    1.0369   -3.2771    0.0000 C   0  0
    1.7525   -3.6874    0.0000 C   0  0
    2.4657   -3.2730    0.0000 O   0  0
    3.1814   -3.6833    0.0000 C   0  0
    3.1788   -4.5073    0.0000 C   0  0
    3.8936   -4.9177    0.0000 C   0  0
    4.6079   -4.5031    0.0000 C   0  0
    4.6028   -3.6738    0.0000 C   0  0
    3.8874   -3.2672    0.0000 C   0  0
    3.8810   -2.4422    0.0000 O   0  0
    2.4641   -4.9195    0.0000 O   0  0
    2.4639   -5.7445    0.0000 C   0  0
    4.5921   -2.0241    0.0000 C   0  0
   -3.9717   -4.5318    0.0000 C   0  0
   -3.9736   -3.7065    0.0000 C   0  0
   -4.6883   -3.2972    0.0000 C   0  0
   -5.4015   -3.7123    0.0000 C   0  0
   -5.3956   -4.5408    0.0000 C   0  0
   -4.6803   -4.9463    0.0000 C   0  0
    0.0817   -2.8291    0.0000 Cl  0  0
  3  2  2  0
 13 14  1  0
  2 25  1  0
 14 15  2  0
  3  8  1  0
 15 16  1  0
  4  5  1  0
 16 17  2  0
  5  6  1  0
 17 18  1  0
  6  7  1  0
 18 19  2  0
 19 14  1  0
  7  8  1  0
 19 20  1  0
  3  4  1  0
 15 21  1  0
  7  9  1  1
 21 22  1  0
 20 23  1  0
  9 10  1  0
 24  1  1  0
 24 25  1  0
 10 11  1  0
 25 26  2  0
  1  4  2  0
 26 27  1  0
 11 12  1  0
 27 28  2  0
 28 29  1  0
 29 24  2  0
 12 13  1  0
M  END