
          11280715362D 1   1.00000     0.00000     0

 25 27  0     0  0            999 V2000
    4.5792   -6.7792    0.0000 C   0  0  0  0  0  0           0  0  0
    4.0667   -6.4792    0.0000 C   0  0  3  0  0  0           0  0  0
    4.5792   -7.3875    0.0000 C   0  0  0  0  0  0           0  0  0
    4.0667   -7.6875    0.0000 O   0  0  0  0  0  0           0  0  0
    3.5417   -7.3917    0.0000 C   0  0  3  0  0  0           0  0  0
    3.5417   -6.7875    0.0000 C   0  0  3  0  0  0           0  0  0
    5.1042   -6.4792    0.0000 C   0  0  0  0  0  0           0  0  0
    3.0167   -6.4792    0.0000 C   0  0  0  0  0  0           0  0  0
    4.0667   -5.8792    0.0000 C   0  0  0  0  0  0           0  0  0
    3.0167   -5.8792    0.0000 C   0  0  0  0  0  0           0  0  0
    3.5542   -5.5792    0.0000 C   0  0  0  0  0  0           0  0  0
    5.1042   -7.6875    0.0000 C   0  0  0  0  0  0           0  0  0
    5.6292   -6.7875    0.0000 C   0  0  0  0  0  0           0  0  0
    5.6292   -7.3792    0.0000 C   0  0  0  0  0  0           0  0  0
    6.1542   -7.6750    0.0000 C   0  0  0  0  0  0           0  0  0
    6.6667   -7.3667    0.0000 C   0  0  0  0  0  0           0  0  0
    5.0917   -5.8792    0.0000 O   0  0  0  0  0  0           0  0  0
    3.3417   -7.9542    0.0000 C   0  0  0  0  0  0           0  0  0
    2.9792   -7.1917    0.0000 C   0  0  0  0  0  0           0  0  0
    3.5667   -4.9792    0.0000 C   0  0  0  0  0  0           0  0  0
    7.1917   -7.6542    0.0000 C   0  0  0  0  0  0           0  0  0
    7.7042   -7.3500    0.0000 C   0  0  0  0  0  0           0  0  0
    8.7417   -7.3292    0.0000 C   0  0  0  0  0  0           0  0  0
    8.2292   -7.6417    0.0000 C   0  0  0  0  0  0           0  0  0
    9.2667   -7.6250    0.0000 C   0  0  0  0  0  0           0  0  0
  2  1  1  0     0  0
  3  1  1  0     0  0
  4  3  1  0     0  0
  5  4  1  0     0  0
  6  2  1  0     0  0
  7  1  2  0     0  0
  8  6  1  0     0  0
  9  2  1  0     0  0
 10 11  2  0     0  0
 11  9  1  0     0  0
 12  3  2  0     0  0
 13  7  1  0     0  0
 14 13  2  0     0  0
 15 14  1  0     0  0
 16 15  2  0     0  0
 17  7  1  0     0  0
 18  5  1  0     0  0
 19  5  1  0     0  0
 20 11  1  0     0  0
 21 16  1  0     0  0
 22 21  1  0     0  0
 23 24  1  0     0  0
 24 22  1  0     0  0
 25 23  1  0     0  0
  5  6  1  0     0  0
 14 12  1  0     0  0
 10  8  1  0     0  0
M  END