
          11280715402D 1   1.00000     0.00000     0

 44 48  0     0  0            999 V2000
   11.0500    2.7708    0.0000 S   0  0  3  0  0  0           0  0  0
   11.7750    1.5333    0.0000 C   0  0  0  0  0  0           0  0  0
   15.4292   -2.3667    0.0000 S   0  0  3  0  0  0           0  0  0
   11.7667    2.3583    0.0000 N   0  0  0  0  0  0           0  0  0
   12.4917    1.1208    0.0000 C   0  0  0  0  0  0           0  0  0
   11.0625    1.1208    0.0000 N   0  0  0  0  0  0           0  0  0
   11.7750   -0.1167    0.0000 N   0  0  0  0  0  0           0  0  0
   11.0625    0.2958    0.0000 C   0  0  0  0  0  0           0  0  0
   12.4917    0.2958    0.0000 C   0  0  0  0  0  0           0  0  0
   16.2167   -2.1292    0.0000 C   0  0  0  0  0  0           0  0  0
   10.3292    2.3583    0.0000 C   0  0  0  0  0  0           0  0  0
   13.2042    1.5375    0.0000 O   0  0  0  0  0  0           0  0  0
   10.3417   -0.1167    0.0000 C   0  0  3  0  0  0           0  0  0
    9.6167    2.7833    0.0000 N   0  0  0  0  0  0           0  0  0
    9.5167   -0.1167    0.0000 C   0  0  0  0  0  0           0  0  0
    9.9292   -0.8292    0.0000 C   0  0  0  0  0  0           0  0  0
   16.8750   -2.6375    0.0000 S   0  0  0  0  0  0           0  0  0
   13.9167    1.1333    0.0000 C   0  0  0  0  0  0           0  0  0
   10.3292    3.1833    0.0000 O   0  0  0  0  0  0           0  0  0
   11.4542    3.4833    0.0000 O   0  0  0  0  0  0           0  0  0
   15.8500   -3.0750    0.0000 O   0  0  0  0  0  0           0  0  0
   15.0000   -1.6542    0.0000 O   0  0  0  0  0  0           0  0  0
   14.6417   -2.5917    0.0000 N   0  0  0  0  0  0           0  0  0
   16.5000   -1.3500    0.0000 C   0  0  0  0  0  0           0  0  0
    8.9000    2.3750    0.0000 C   0  0  0  0  0  0           0  0  0
   17.5542   -2.1667    0.0000 C   0  0  0  0  0  0           0  0  0
    8.8917    1.5500    0.0000 C   0  0  0  0  0  0           0  0  0
   10.3250    1.5375    0.0000 C   0  0  0  0  0  0           0  0  0
   14.6250    1.5458    0.0000 C   0  0  0  0  0  0           0  0  0
   17.3292   -1.3750    0.0000 C   0  0  0  0  0  0           0  0  0
    9.6042    1.1333    0.0000 C   0  0  0  0  0  0           0  0  0
   13.2042   -0.1167    0.0000 O   0  0  0  0  0  0           0  0  0
    8.1750    1.1458    0.0000 C   0  0  3  0  0  0           0  0  0
   14.6167    2.3708    0.0000 O   0  0  0  0  0  0           0  0  0
   13.9250   -1.3542    0.0000 C   0  0  0  0  0  0           0  0  0
   13.9250   -2.1792    0.0000 C   0  0  0  0  0  0           0  0  0
   13.9167    0.3083    0.0000 C   0  0  0  0  0  0           0  0  0
   13.2042   -0.9417    0.0000 C   0  0  0  0  0  0           0  0  0
   15.3417    1.1458    0.0000 C   0  0  0  0  0  0           0  0  0
    8.1667    0.3208    0.0000 C   0  0  0  0  0  0           0  0  0
    7.4625    1.5583    0.0000 C   0  0  0  0  0  0           0  0  0
   13.9042    2.7833    0.0000 C   0  0  0  0  0  0           0  0  0
   14.6292   -0.1042    0.0000 C   0  0  0  0  0  0           0  0  0
   15.3500    0.3125    0.0000 C   0  0  0  0  0  0           0  0  0
  2  4  1  0     0  0
  3 23  1  0     0  0
  4  1  1  0     0  0
  5  2  2  0     0  0
  6  2  1  0     0  0
  7  8  1  0     0  0
  8  6  2  0     0  0
  9  5  1  0     0  0
 10  3  1  0     0  0
 11  1  1  0     0  0
 12  5  1  0     0  0
 13  8  1  0     0  0
 14 11  2  0     0  0
 15 13  1  0     0  0
 16 13  1  0     0  0
 17 10  1  0     0  0
 18 12  1  0     0  0
 19  1  2  0     0  0
 20  1  2  0     0  0
 21  3  2  0     0  0
 22  3  2  0     0  0
 23 36  1  0     0  0
 24 10  2  0     0  0
 25 14  1  0     0  0
 26 17  1  0     0  0
 27 31  1  0     0  0
 28 11  1  0     0  0
 29 18  1  0     0  0
 30 24  1  0     0  0
 31 28  2  0     0  0
 32  9  1  0     0  0
 33 27  1  0     0  0
 34 29  1  0     0  0
 35 38  1  0     0  0
 36 35  1  0     0  0
 37 18  2  0     0  0
 38 32  1  0     0  0
 39 29  2  0     0  0
 40 33  1  0     0  0
 41 33  1  0     0  0
 42 34  1  0     0  0
 43 37  1  0     0  0
 44 43  2  0     0  0
 27 25  2  0     0  0
  7  9  2  0     0  0
 15 16  1  0     0  0
 44 39  1  0     0  0
 30 26  2  0     0  0
M  END