
          03140815522D 1   1.00000     0.00000     0

 17 18  0     0  0            999 V2000
    9.1813   -5.6162    0.0000 C   0  0  0  0  0  0           0  0  0
    9.1801   -6.4436    0.0000 C   0  0  0  0  0  0           0  0  0
    9.8949   -6.8564    0.0000 C   0  0  0  0  0  0           0  0  0
   10.6113   -6.4431    0.0000 C   0  0  0  0  0  0           0  0  0
   10.6084   -5.6126    0.0000 C   0  0  0  0  0  0           0  0  0
    9.8931   -5.2036    0.0000 C   0  0  0  0  0  0           0  0  0
   11.3214   -5.1975    0.0000 O   0  0  0  0  0  0           0  0  0
   12.0373   -5.6072    0.0000 C   0  0  0  0  0  0           0  0  0
   12.0370   -6.4299    0.0000 C   0  0  0  0  0  0           0  0  0
   12.7522   -6.8395    0.0000 C   0  0  0  0  0  0           0  0  0
   13.4660   -6.4243    0.0000 C   0  0  0  0  0  0           0  0  0
   13.4602   -5.5951    0.0000 C   0  0  0  0  0  0           0  0  0
   12.7446   -5.1892    0.0000 C   0  0  0  0  0  0           0  0  0
   12.7372   -4.3642    0.0000 O   0  0  0  0  0  0           0  0  0
   14.1826   -6.8331    0.0000 C   0  0  0  0  0  0           0  0  0
   14.1868   -7.6581    0.0000 O   0  0  0  0  0  0           0  0  0
   13.4478   -3.9453    0.0000 C   0  0  0  0  0  0           0  0  0
  8  9  2  0     0  0
  4  5  1  0     0  0
  9 10  1  0     0  0
  2  3  1  0     0  0
 10 11  2  0     0  0
  5  6  2  0     0  0
 11 12  1  0     0  0
  6  1  1  0     0  0
 12 13  2  0     0  0
 13  8  1  0     0  0
  1  2  2  0     0  0
 13 14  1  0     0  0
  5  7  1  0     0  0
 11 15  1  0     0  0
  3  4  2  0     0  0
 15 16  2  0     0  0
  7  8  1  0     0  0
 14 17  1  0     0  0
M  END