
  SciTegic01161211242D

 56 60  0  0  0  0            999 V2000
    8.0667   -5.0000    0.0000 N   0  3
    8.6208   -5.6125    0.0000 C   0  0
    8.2125   -6.3292    0.0000 N   0  0
    7.3083   -5.3417    0.0000 C   0  0
    7.4000   -6.1542    0.0000 C   0  0
    9.4250   -5.7792    0.0000 S   0  0
    3.0250   -5.3417    0.0000 C   0  0
    8.7667   -6.9375    0.0000 C   0  0
   -0.5458   -6.5750    0.0000 C   0  0
    9.5167   -6.6000    0.0000 C   0  0
    5.1667   -4.9292    0.0000 C   0  0
    3.7375   -4.9292    0.0000 N   0  0
    8.2375   -4.1917    0.0000 C   0  0
    4.4542   -5.3417    0.0000 C   0  0  1  0  0  0
    5.8792   -5.3417    0.0000 N   0  0
    6.5958   -4.9292    0.0000 C   0  0
    2.3083   -4.9292    0.0000 N   0  0
   -1.2625   -6.1625    0.0000 O   0  0
    0.1667   -6.1625    0.0000 C   0  0
    3.0250   -6.1667    0.0000 O   0  0
    9.0208   -3.9375    0.0000 C   0  0
   -0.5458   -7.4000    0.0000 O   0  0
   10.4167   -4.2292    0.0000 C   0  0
    4.4542   -6.1667    0.0000 C   0  0
    9.6375   -4.4875    0.0000 C   0  0
    5.1667   -4.1042    0.0000 O   0  0
   10.5917   -3.4250    0.0000 C   0  0
    0.1667   -5.3333    0.0000 C   0  0
    0.8875   -6.5750    0.0000 C   0  0
    9.9708   -2.8750    0.0000 C   0  0
    1.5958   -5.3417    0.0000 C   0  0
    5.1667   -6.5792    0.0000 C   0  0
    9.1917   -3.1333    0.0000 C   0  0
    6.5917   -7.4042    0.0000 C   0  0
    0.8792   -4.9250    0.0000 C   0  0
    1.5958   -6.1583    0.0000 C   0  0
    5.8750   -6.1667    0.0000 C   0  0
    5.1625   -7.4042    0.0000 C   0  0
    5.8750   -7.8167    0.0000 C   0  0
    6.5875   -6.5750    0.0000 C   0  0
    7.3042   -7.8167    0.0000 O   0  0
   -1.9750   -6.5750    0.0000 C   0  0
   10.2333   -7.0083    0.0000 C   0  0
   11.0250   -4.7792    0.0000 C   0  0
   11.3667   -3.1708    0.0000 C   0  0
   -2.6917   -6.1667    0.0000 C   0  0
   -1.9750   -7.4000    0.0000 C   0  0
   11.8083   -4.5250    0.0000 C   0  0
   11.9792   -3.7167    0.0000 C   0  0
    1.9917  -11.5208    0.0000 C   0  0
    2.7061  -11.1083    0.0000 O   0  5
    1.2772  -11.1083    0.0000 C   0  0
    0.5627  -11.5208    0.0000 F   0  0
    1.9917  -12.3458    0.0000 O   0  0
    1.2772  -10.2833    0.0000 F   0  0
    1.4907  -11.9052    0.0000 F   0  0
  7 12  1  0
  8  3  1  0
  9 19  1  0
 10  6  1  0
 11 15  1  0
 12 14  1  0
 13  1  1  0
 14 11  1  0
 15 16  1  0
 16  4  1  0
 17  7  1  0
 18  9  1  0
 19 29  1  0
 20  7  2  0
 21 13  1  0
 22  9  2  0
 23 25  1  0
 14 24  1  6
 25 21  2  0
 26 11  2  0
 27 30  1  0
 28 35  1  0
 29 36  2  0
 30 33  2  0
 31 17  1  0
 32 24  1  0
 33 21  1  0
 34 39  2  0
 35 31  2  0
 36 31  1  0
 37 32  1  0
 38 32  2  0
 39 38  1  0
 40 37  2  0
 41 34  1  0
 42 18  1  0
 43 10  1  0
 44 23  2  0
 45 27  2  0
 46 42  1  0
 47 42  1  0
 48 44  1  0
 49 45  1  0
  3  5  1  0
 10  8  2  0
 23 27  1  0
 49 48  2  0
 40 34  1  0
 19 28  2  0
 50 51  1  0
  2  1  2  0
 50 52  1  0
  3  2  1  0
 52 53  1  0
  4  1  1  0
 50 54  2  0
  5  4  2  0
 52 55  1  0
  6  2  1  0
 52 56  1  0
M  CHG  2   1   1  51  -1
M  END