
  SciTegic09081514182D

 27 30  0  0  0  0            999 V2000
   -2.2935    3.7700    0.0000 C   0  0
   -2.2901    5.2700    0.0000 C   0  0
   -3.5873    6.0231    0.0000 N   0  0
   -4.8881    5.2761    0.0000 N   0  0
   -4.8917    3.7761    0.0000 C   0  0
   -3.5944    3.0231    0.0000 N   0  0
   -0.9971    3.0138    0.0000 N   0  0
   -1.0028    1.5132    0.0000 C   0  0
   -2.3155    0.7475    0.0000 C   0  0
   -2.3155   -0.7475    0.0000 C   0  0
   -1.0028   -1.5132    0.0000 C   0  0
    0.2917   -0.7475    0.0000 C   0  0
    0.2917    0.7475    0.0000 C   0  0
   -6.1917    3.0261    0.0000 N   0  0
   -6.1931    1.5253    0.0000 C   0  0  2  0  0  0
   -4.8932    0.7766    0.0000 C   0  0
   -4.8916   -0.7234    0.0000 C   0  0
   -6.1898   -1.4748    0.0000 C   0  0
   -7.4897   -0.7262    0.0000 C   0  0
   -7.4913    0.7738    0.0000 C   0  0  2  0  0  0
   -8.5312    1.3727    0.0000 N   0  0
    0.0488    5.4194    0.0000 N   0  0
   -0.9901    6.0200    0.0000 C   0  0
   -0.9890    7.2200    0.0000 O   0  0
    1.7138    1.2033    0.0000 N   0  0
    2.5889    0.0182    0.0000 C   0  0
    1.7138   -1.2033    0.0000 C   0  0
  1  2  1  0
  3  4  1  0
  4  5  2  0
  5  6  1  0
  1  6  2  0
  1  7  1  0
  7  8  1  0
  8  9  1  0
  8 13  2  0
  9 10  2  0
 10 11  1  0
 11 12  2  0
  5 14  1  0
 15 14  1  6
 15 16  1  0
 15 20  1  0
 16 17  1  0
 17 18  1  0
 18 19  1  0
 19 20  1  0
 20 21  1  6
  2  3  2  0
  2 23  1  0
 22 23  1  0
 23 24  2  0
 12 27  1  0
 12 13  1  0
 13 25  1  0
 25 26  1  0
 26 27  2  0
M  END