
  SciTegic05061409512D

 17 19  0  0  0  0            999 V2000
   14.2375  -17.5344    0.0000 C   0  0
   14.6465  -18.2432    0.0000 C   0  0
   15.4629  -18.2424    0.0000 C   0  0
   15.8713  -17.5336    0.0000 C   0  0
   15.4573  -16.8241    0.0000 C   0  0
   14.6423  -16.8284    0.0000 C   0  0
   16.6885  -17.5314    0.0000 N   0  0
   17.0941  -18.2381    0.0000 C   0  0
   17.9078  -18.2378    0.0000 C   0  0
   18.3183  -17.5308    0.0000 C   0  0
   17.9090  -16.8224    0.0000 C   0  0
   17.0892  -16.8210    0.0000 C   0  0
   19.1373  -17.5281    0.0000 N   0  0
   19.6170  -18.1897    0.0000 C   0  0
   20.3944  -17.9380    0.0000 C   0  0
   20.3953  -17.1207    0.0000 C   0  0
   19.6184  -16.8675    0.0000 C   0  0
  1  2  2  0
  2  3  1  0
  3  4  2  0
  4  5  1  0
  5  6  2  0
  6  1  1  0
  4  7  1  0
  7  8  1  0
  7 12  1  0
  8  9  1  0
  9 10  1  0
 10 11  1  0
 11 12  1  0
 13 14  1  0
 14 15  1  0
 15 16  1  0
 16 17  1  0
 17 13  1  0
 10 13  1  0
M  END