
  Mrv0541 04051115152D          

 20 22  0  0  0  0            999 V2000
   -2.0155   -2.8345    0.0000 O   0  0  0  0  0  0  0  0  0  0  0  0
   -2.1018   -2.0141    0.0000 C   0  0  0  0  0  0  0  0  0  0  0  0
   -1.4343   -1.5291    0.0000 C   0  0  1  0  0  0  0  0  0  0  0  0
   -1.4343   -0.7041    0.0000 O   0  0  0  0  0  0  0  0  0  0  0  0
   -0.6497   -0.4492    0.0000 C   0  0  1  0  0  0  0  0  0  0  0  0
   -0.3948    0.3354    0.0000 N   0  0  0  0  0  0  0  0  0  0  0  0
   -0.8797    1.0029    0.0000 C   0  0  0  0  0  0  0  0  0  0  0  0
   -0.3948    1.6703    0.0000 N   0  0  0  0  0  0  0  0  0  0  0  0
    0.3898    1.4154    0.0000 C   0  0  0  0  0  0  0  0  0  0  0  0
    1.1043    1.8279    0.0000 C   0  0  0  0  0  0  0  0  0  0  0  0
    1.1043    2.6529    0.0000 S   0  0  0  0  0  0  0  0  0  0  0  0
    0.3898    3.0654    0.0000 C   0  0  0  0  0  0  0  0  0  0  0  0
    1.8188    1.4154    0.0000 N   0  0  0  0  0  0  0  0  0  0  0  0
    1.8188    0.5904    0.0000 C   0  0  0  0  0  0  0  0  0  0  0  0
    1.1043    0.1779    0.0000 N   0  0  0  0  0  0  0  0  0  0  0  0
    0.3898    0.5904    0.0000 C   0  0  0  0  0  0  0  0  0  0  0  0
   -0.1648   -1.1166    0.0000 C   0  0  2  0  0  0  0  0  0  0  0  0
    0.6602   -1.1166    0.0000 O   0  0  0  0  0  0  0  0  0  0  0  0
   -0.6497   -1.7841    0.0000 C   0  0  2  0  0  0  0  0  0  0  0  0
   -0.3948   -2.5687    0.0000 O   0  0  0  0  0  0  0  0  0  0  0  0
  2  1  1  0  0  0  0
  3  2  1  1  0  0  0
  3  4  1  0  0  0  0
 19  3  1  0  0  0  0
  5  4  1  0  0  0  0
  5  6  1  1  0  0  0
  5 17  1  0  0  0  0
  7  6  1  0  0  0  0
 16  6  1  0  0  0  0
  7  8  2  0  0  0  0
  9  8  1  0  0  0  0
  9 10  2  0  0  0  0
 16  9  1  0  0  0  0
 10 11  1  0  0  0  0
 10 13  1  0  0  0  0
 12 11  1  0  0  0  0
 14 13  2  0  0  0  0
 14 15  1  0  0  0  0
 16 15  2  0  0  0  0
 17 18  1  6  0  0  0
 17 19  1  0  0  0  0
 19 20  1  6  0  0  0
M  END