
  SciTegic01161211222D

 23 25  0  0  0  0            999 V2000
   16.3444   -5.2041    0.0000 C   0  0
   16.3432   -6.0315    0.0000 C   0  0
   17.0581   -6.4444    0.0000 C   0  0
   17.0563   -4.7914    0.0000 C   0  0
   17.7716   -5.2005    0.0000 C   0  0
   17.7724   -6.0273    0.0000 C   0  0
   18.4877   -6.4383    0.0000 N   0  0
   19.2027   -6.0235    0.0000 C   0  0
   19.1980   -5.1936    0.0000 N   0  0
   18.4821   -4.7863    0.0000 C   0  0
   18.4777   -3.9614    0.0000 N   0  0
   19.1900   -3.5451    0.0000 C   0  0
   19.9056   -3.9593    0.0000 C   0  0
   20.6174   -3.5437    0.0000 C   0  0
   20.6135   -2.7178    0.0000 C   0  0
   19.8918   -2.3093    0.0000 C   0  0
   19.1830   -2.7272    0.0000 C   0  0
   21.3339   -3.9527    0.0000 Br  0  0
   15.6298   -4.7918    0.0000 N   0  0
   14.9155   -5.2045    0.0000 C   0  0
   14.2009   -4.7921    0.0000 C   0  0
   14.9157   -6.0295    0.0000 O   0  0
   13.4865   -5.2048    0.0000 C   0  0
 10 11  1  0
  2  3  1  0
 11 12  1  0
  5  6  1  0
 12 13  2  0
  3  6  2  0
 13 14  1  0
  6  7  1  0
 14 15  2  0
  1  2  2  0
 15 16  1  0
  7  8  2  0
 16 17  2  0
 17 12  1  0
  5  4  2  0
 14 18  1  0
  8  9  1  0
  1 19  1  0
  4  1  1  0
 19 20  1  0
  9 10  2  0
 20 21  1  0
 10  5  1  0
 20 22  2  0
 21 23  1  0
M  END