
  SciTegic06051315212D

 32 37  0  0  0  0            999 V2000
    6.0442   -7.3792    0.0000 C   0  0
    8.5367   -6.6012    0.0000 C   0  0
    6.0440   -8.1965    0.0000 N   0  0
    6.0424   -5.7415    0.0000 C   0  0
    6.7529   -6.9696    0.0000 N   0  0
    6.6478   -4.4491    0.0000 C   0  0
    7.3700   -4.8262    0.0000 C   0  0
    8.6423   -5.1911    0.0000 C   0  0
    8.1823   -5.8688    0.0000 C   0  0
    5.9572   -4.8846    0.0000 C   0  0
    8.1379   -4.5474    0.0000 N   0  0
    7.3978   -5.6441    0.0000 N   0  0
    6.6170   -3.6311    0.0000 C   0  0
    9.4523   -5.2489    0.0000 C   0  0
    9.8093   -5.9787    0.0000 C   0  0
    5.2353   -4.5079    0.0000 C   0  0
    6.7501   -6.1468    0.0000 C   0  0
    5.3371   -6.9701    0.0000 N   0  0
    5.3383   -6.1504    0.0000 C   0  0
    9.3509   -6.6614    0.0000 C   0  0
    5.3361   -8.6050    0.0000 C   0  0
    4.6344   -8.1925    0.0000 C   0  0
    3.9287   -8.5975    0.0000 C   0  0
    3.9243   -9.4150    0.0000 C   0  0
    4.6317   -9.8260    0.0000 C   0  0
    5.3436   -9.4194    0.0000 C   0  0
    5.1999   -3.6890    0.0000 C   0  0
    5.8939   -3.2514    0.0000 C   0  0
    5.8610   -2.4334    0.0000 C   0  0
    5.1348   -2.0521    0.0000 C   0  0
    4.4403   -2.4948    0.0000 C   0  0
    4.4766   -3.3112    0.0000 C   0  0
  8  9  2  0
  2 20  2  0
  7  6  1  0
 11  7  2  0
  4 19  1  0
  1  3  1  0
  7 12  1  0
 15 14  2  0
 20 15  1  0
  1  5  2  0
 19 18  2  0
  5 17  1  0
 16 10  2  0
 18  1  1  0
  6 13  2  0
 10  6  1  0
 14  8  1  0
  8 11  1  0
 27 16  1  0
 17  4  2  0
  9  2  1  0
 12  9  1  0
 17 12  1  0
 13 28  1  0
  3 21  1  0
 21 22  1  0
 21 26  1  0
 22 23  1  0
 23 24  1  0
 24 25  1  0
 25 26  1  0
 27 28  1  0
 28 29  2  0
 29 30  1  0
 30 31  2  0
 31 32  1  0
 32 27  2  0
M  END