
  CDK    9/16/09,9:59

 35 38  0  0  0  0  0  0  0  0999 V2000
   -3.4870   -2.4542    0.0000 N   0  0  0  0  0  0  0  0  0  0  0  0
   -2.7680   -2.0409    0.0000 C   0  0  0  0  0  0  0  0  0  0  0  0
   -2.7710   -1.2101    0.0000 C   0  0  0  0  0  0  0  0  0  0  0  0
   -3.4890   -0.8015    0.0000 C   0  0  0  0  0  0  0  0  0  0  0  0
   -4.1998   -2.0414    0.0000 C   0  0  0  0  0  0  0  0  0  0  0  0
   -4.1974   -1.2160    0.0000 C   0  0  0  0  0  0  0  0  0  0  0  0
   -4.9099   -0.8028    0.0000 C   0  0  0  0  0  0  0  0  0  0  0  0
   -5.6253   -1.2142    0.0000 C   0  0  0  0  0  0  0  0  0  0  0  0
   -5.6238   -2.0429    0.0000 C   0  0  0  0  0  0  0  0  0  0  0  0
   -4.9106   -2.4522    0.0000 C   0  0  0  0  0  0  0  0  0  0  0  0
   -6.3371   -2.4569    0.0000 Cl  0  0  0  0  0  0  0  0  0  0  0  0
   -3.4939    0.0232    0.0000 N   0  0  0  0  0  0  0  0  0  0  0  0
   -2.7822    0.4398    0.0000 C   0  0  0  0  0  0  0  0  0  0  0  0
   -2.0655    0.0297    0.0000 C   0  0  0  0  0  0  0  0  0  0  0  0
   -1.3542    0.4456    0.0000 C   0  0  0  0  0  0  0  0  0  0  0  0
   -1.3587    1.2712    0.0000 C   0  0  0  0  0  0  0  0  0  0  0  0
   -2.0804    1.6790    0.0000 C   0  0  0  0  0  0  0  0  0  0  0  0
   -2.7886    1.2607    0.0000 C   0  0  0  0  0  0  0  0  0  0  0  0
   -0.6384    0.0375    0.0000 N   0  0  0  0  0  0  0  0  0  0  0  0
   -2.0883    2.5080    0.0000 C   0  0  0  0  0  0  0  0  0  0  0  0
    0.0729    0.4534    0.0000 C   0  0  0  0  0  0  0  0  0  0  0  0
    0.7886    0.0453    0.0000 C   0  0  0  0  0  0  0  0  0  0  0  0
    0.0684    1.2773    0.0000 O   0  0  0  0  0  0  0  0  0  0  0  0
    0.7933   -0.7786    0.0000 N   0  0  0  0  0  0  0  0  0  0  0  0
    0.0835   -1.1907    0.0000 C   0  0  0  0  0  0  0  0  0  0  0  0
    0.0860   -2.0110    0.0000 C   0  0  0  0  0  0  0  0  0  0  0  0
    0.8000   -2.4229    0.0000 C   0  0  0  0  0  0  0  0  0  0  0  0
    1.5132   -2.0082    0.0000 C   0  0  0  0  0  0  0  0  0  0  0  0
    1.5123   -1.1817    0.0000 C   0  0  0  0  0  0  0  0  0  0  0  0
   -1.3743    2.9293    0.0000 N   0  0  0  0  0  0  0  0  0  0  0  0
   -0.6525    2.5217    0.0000 C   0  0  0  0  0  0  0  0  0  0  0  0
    0.0615    2.9429    0.0000 C   0  0  0  0  0  0  0  0  0  0  0  0
    0.7833    2.5353    0.0000 N   0  0  0  0  0  0  0  0  0  0  0  0
    0.7912    1.7063    0.0000 C   0  0  0  0  0  0  0  0  0  0  0  0
    1.4972    2.9566    0.0000 C   0  0  0  0  0  0  0  0  0  0  0  0
 16 17  1  0  0  0  0 
  3  4  2  0  0  0  0 
 17 18  2  0  0  0  0 
 18 13  1  0  0  0  0 
  8  9  2  0  0  0  0 
 15 19  1  0  0  0  0 
  4  6  1  0  0  0  0 
 17 20  1  0  0  0  0 
  9 10  1  0  0  0  0 
 19 21  1  0  0  0  0 
 10  5  2  0  0  0  0 
 21 22  1  0  0  0  0 
  1  2  2  0  0  0  0 
 21 23  2  0  0  0  0 
  9 11  1  0  0  0  0 
 22 24  1  0  0  0  0 
 24 25  1  0  0  0  0 
  5  1  1  0  0  0  0 
  4 12  1  0  0  0  0 
  5  6  1  0  0  0  0 
 12 13  1  0  0  0  0 
  2  3  1  0  0  0  0 
 24 29  1  0  0  0  0 
 25 26  1  0  0  0  0 
 26 27  1  0  0  0  0 
 27 28  1  0  0  0  0 
 28 29  1  0  0  0  0 
 13 14  2  0  0  0  0 
 20 30  1  0  0  0  0 
  6  7  2  0  0  0  0 
 30 31  1  0  0  0  0 
 14 15  1  0  0  0  0 
 31 32  1  0  0  0  0 
 32 33  1  0  0  0  0 
 15 16  2  0  0  0  0 
 33 34  1  0  0  0  0 
  7  8  1  0  0  0  0 
 33 35  1  0  0  0  0 
M  END