
  SciTegic12231509382D

 18 20  0  0  0  0            999 V2000
    4.9000   -4.7000    0.0000 N   0  0
    5.4042   -3.8292    0.0000 C   0  0
    5.4042   -4.4042    0.0000 C   0  0
    4.4042   -3.8292    0.0000 C   0  0
    4.4000   -4.4042    0.0000 C   0  0
    5.9042   -3.5417    0.0000 C   0  0
    6.4042   -3.8292    0.0000 C   0  0
    6.4042   -4.4125    0.0000 N   0  0
    6.9125   -3.5375    0.0000 C   0  0
    5.9000   -4.7000    0.0000 C   0  0
    6.9125   -2.9542    0.0000 O   0  0
    7.4167   -3.8292    0.0000 O   0  0
    3.8917   -3.5375    0.0000 C   0  0
    3.8917   -4.7000    0.0000 C   0  0
    7.4167   -4.4167    0.0000 C   0  0
    3.3917   -3.8292    0.0000 C   0  0
    3.3917   -4.4042    0.0000 C   0  0
    7.9167   -4.7042    0.0000 C   0  0
  2  3  1  0
  3  1  1  0
  4  5  1  0
  5  1  2  0
  6  2  1  0
  7  8  1  0
  8 10  1  0
  9  7  1  0
 10  3  2  0
 11  9  2  0
 12  9  1  0
 13  4  1  0
 14  5  1  0
 15 12  1  0
 16 17  1  0
 17 14  2  0
 18 15  1  0
  2  4  2  0
 16 13  2  0
  6  7  2  0
M  END