
  SciTegic12201110432D

 10 10  0  0  0  0            999 V2000
   -0.3342    1.8975    0.0000 C   0  0
   -0.3342    1.0725    0.0000 C   0  0
    0.3802    0.6600    0.0000 C   0  0
    0.3802   -0.1650    0.0000 C   0  0
    1.0947   -0.5775    0.0000 C   0  0
    1.0947   -1.4025    0.0000 C   0  0
    0.3802   -1.8150    0.0000 C   0  0
   -0.3342   -1.4025    0.0000 C   0  0
   -0.3342   -0.5775    0.0000 C   0  0
   -1.0487    2.3100    0.0000 N   0  0
  1  2  1  0
  1 10  1  0
  2  3  1  0
  4  3  1  0
  4  5  2  0
  4  9  1  0
  5  6  1  0
  6  7  2  0
  7  8  1  0
  8  9  2  0
M  END