
          05080814042D 1   1.00000     0.00000     0

 35 39  0     1  0            999 V2000
    6.9768  -15.7322    0.0000 C   0  0  0  0  0  0           0  0  0
    6.2660  -16.1470    0.0000 C   0  0  0  0  0  0           0  0  0
    6.2730  -16.9734    0.0000 C   0  0  0  0  0  0           0  0  0
    6.9869  -17.3768    0.0000 C   0  0  0  0  0  0           0  0  0
    7.6901  -16.1394    0.0000 C   0  0  0  0  0  0           0  0  0
    7.6961  -16.9670    0.0000 C   0  0  0  0  0  0           0  0  0
    8.4120  -17.3734    0.0000 C   0  0  0  0  0  0           0  0  0
    8.3999  -15.7180    0.0000 C   0  0  0  0  0  0           0  0  0
    9.1203  -16.1289    0.0000 C   0  0  2  0  0  0           0  0  0
    9.1249  -16.9585    0.0000 C   0  0  2  0  0  0           0  0  0
    9.8416  -17.3671    0.0000 N   0  0  3  0  0  0           0  0  0
   10.5585  -16.9507    0.0000 C   0  0  0  0  0  0           0  0  0
   10.5539  -16.1211    0.0000 C   0  0  1  0  0  0           0  0  0
    9.8325  -15.7079    0.0000 C   0  0  0  0  0  0           0  0  0
    9.1125  -15.3000    0.0000 H   0  0  0  0  0  0           0  0  0
    9.1167  -17.7833    0.0000 H   0  0  0  0  0  0           0  0  0
   11.2665  -15.7054    0.0000 C   0  0  0  0  0  0           0  0  0
   11.9828  -16.1147    0.0000 N   0  0  3  0  0  0           0  0  0
   11.2628  -14.8804    0.0000 O   0  0  0  0  0  0           0  0  0
   11.9805  -16.9428    0.0000 C   0  0  0  0  0  0           0  0  0
   12.6927  -17.3521    0.0000 C   0  0  0  0  0  0           0  0  0
   13.4078  -16.9399    0.0000 N   0  0  3  0  0  0           0  0  0
   13.4061  -16.1139    0.0000 C   0  0  0  0  0  0           0  0  0
   12.6893  -15.7001    0.0000 C   0  0  0  0  0  0           0  0  0
    6.9728  -14.9072    0.0000 O   0  0  0  0  0  0           0  0  0
    6.2564  -14.4981    0.0000 C   0  0  0  0  0  0           0  0  0
    9.8450  -18.1921    0.0000 C   0  0  0  0  0  0           0  0  0
   14.1225  -17.3519    0.0000 C   0  0  0  0  0  0           0  0  0
   14.1186  -18.1761    0.0000 C   0  0  0  0  0  0           0  0  0
   14.8325  -18.5880    0.0000 C   0  0  0  0  0  0           0  0  0
   15.5477  -18.1750    0.0000 C   0  0  0  0  0  0           0  0  0
   15.5445  -17.3457    0.0000 C   0  0  0  0  0  0           0  0  0
   14.8300  -16.9375    0.0000 N   0  0  3  0  0  0           0  0  0
   16.2572  -16.9302    0.0000 O   0  0  0  0  0  0           0  0  0
   14.8255  -16.1125    0.0000 C   0  0  0  0  0  0           0  0  0
  6  7  1  0     0  0
 13 17  1  1     0  0
  7 10  1  0     0  0
 17 18  1  0     0  0
  9  8  1  0     0  0
 17 19  2  0     0  0
 18 20  1  0     0  0
  9 10  1  0     0  0
  3  4  2  0     0  0
  4  6  1  0     0  0
  5  6  2  0     0  0
  1  2  2  0     0  0
 18 24  1  0     0  0
 20 21  1  0     0  0
 21 22  1  0     0  0
 22 23  1  0     0  0
 23 24  1  0     0  0
  5  1  1  0     0  0
  1 25  1  0     0  0
  2  3  1  0     0  0
 25 26  1  0     0  0
  9 14  1  0     0  0
 11 27  1  0     0  0
 10 11  1  0     0  0
 22 28  1  0     0  0
 11 12  1  0     0  0
 28 29  2  0     0  0
 12 13  1  0     0  0
 29 30  1  0     0  0
 13 14  1  0     0  0
 30 31  2  0     0  0
 31 32  1  0     0  0
  9 15  1  6     0  0
 32 33  1  0     0  0
 33 28  1  0     0  0
  5  8  1  0     0  0
 32 34  2  0     0  0
 10 16  1  1     0  0
 33 35  1  0     0  0
M  END