
  SciTegic09291413392D

 27 29  0  0  0  0            999 V2000
    3.9814  -23.0299    0.0000 C   0  0
    3.9802  -23.8494    0.0000 C   0  0
    4.6883  -24.2584    0.0000 C   0  0
    4.6865  -22.6210    0.0000 C   0  0
    5.3951  -23.0263    0.0000 C   0  0
    5.3958  -23.8453    0.0000 C   0  0
    6.1044  -24.2524    0.0000 N   0  0
    6.8126  -23.8416    0.0000 C   0  0
    6.8079  -23.0194    0.0000 C   0  0
    6.0988  -22.6161    0.0000 C   0  0
    6.0939  -21.8039    0.0000 C   0  0
    6.8011  -21.3922    0.0000 C   0  0
    6.7971  -20.5758    0.0000 C   0  0
    6.0867  -20.1701    0.0000 C   0  0
    5.3788  -20.5869    0.0000 C   0  0
    5.3863  -21.4019    0.0000 C   0  0
    7.5131  -22.6065    0.0000 C   0  0  1  0  0  0
    8.2233  -23.0108    0.0000 C   0  0
    8.2295  -23.8286    0.0000 O   0  0
    8.9298  -22.5986    0.0000 O   0  0
    7.5219  -24.2474    0.0000 C   0  0
    6.0813  -19.3530    0.0000 Cl  0  0
    7.5081  -21.7894    0.0000 O   0  0
    8.2134  -21.3765    0.0000 C   0  0
    8.2084  -20.5593    0.0000 C   0  0
    8.9235  -21.7807    0.0000 C   0  0
    8.9189  -20.9622    0.0000 C   0  0
  1  2  2  0
  2  3  1  0
  3  6  2  0
  5  4  2  0
  4  1  1  0
  5  6  1  0
  6  7  1  0
  7  8  2  0
  8  9  1  0
  9 10  2  0
 10  5  1  0
 11 12  2  0
 12 13  1  0
 13 14  2  0
 14 15  1  0
 15 16  2  0
 16 11  1  0
 10 11  1  0
  9 17  1  0
 17 18  1  0
 18 19  1  0
 18 20  2  0
  8 21  1  0
 14 22  1  0
 17 23  1  6
 23 24  1  0
 24 25  1  0
 24 26  1  0
 24 27  1  0
M  END