
  SciTegic02271514512D

 33 37  0  0  0  0            999 V2000
    7.8080   -3.4518    0.0000 N   0  0
    5.9869   -4.6186    0.0000 C   0  0
    6.7817   -4.4272    0.0000 N   0  0
    7.0133   -3.6432    0.0000 C   0  0
    6.4502   -3.0507    0.0000 C   0  0
    5.6554   -3.2421    0.0000 C   0  0
    5.4238   -4.0260    0.0000 N   0  0
    6.6818   -2.2667    0.0000 F   0  0
    5.0069   -6.4932    0.0000 C   0  0
    4.9849   -5.6760    0.0000 C   0  0
    4.2662   -5.2865    0.0000 C   0  0
    3.5695   -5.7141    0.0000 C   0  0
    3.5915   -6.5313    0.0000 C   0  0
    4.3102   -6.9208    0.0000 N   0  0
    5.7909   -6.7248    0.0000 N   0  0
    5.7553   -5.4026    0.0000 C   0  0
    6.2534   -6.0508    0.0000 C   0  0
    2.8508   -5.3245    0.0000 F   0  0
    8.3710   -4.0442    0.0000 C   0  0  1  0  0  0
    8.1361   -4.8285    0.0000 C   0  0
    8.6952   -5.4196    0.0000 C   0  0
    9.4910   -5.2323    0.0000 C   0  0
    9.7247   -4.4482    0.0000 C   0  0  2  0  0  0
    9.1626   -3.8515    0.0000 C   0  0
   10.5198   -4.2596    0.0000 N   0  0
   11.0807   -4.8539    0.0000 C   0  0
   10.8465   -5.6368    0.0000 O   0  0
   11.8758   -4.6652    0.0000 N   0  0
   12.4334   -5.2617    0.0000 C   0  0
   13.2255   -5.0758    0.0000 C   0  0
   13.4639   -4.2938    0.0000 O   0  0
   12.9037   -3.6975    0.0000 C   0  0
   12.1053   -3.8832    0.0000 C   0  0
  2  3  1  0
  3  4  2  0
  4  5  1  0
  5  6  2  0
  6  7  1  0
  2  7  2  0
  5  8  1  0
  9 10  1  0
 10 11  2  0
 11 12  1  0
 12 13  2  0
 13 14  1  0
  9 14  2  0
 16 17  2  0
 15 17  1  0
  9 15  1  0
 10 16  1  0
 12 18  1  0
  2 16  1  0
  1  4  1  0
 19  1  1  6
 19 20  1  0
 19 24  1  0
 20 21  1  0
 21 22  1  0
 22 23  1  0
 23 24  1  0
 23 25  1  6
 25 26  1  0
 26 27  2  0
 26 28  1  0
 28 29  1  0
 28 33  1  0
 29 30  1  0
 30 31  1  0
 31 32  1  0
 32 33  1  0
M  END