
          11280715362D 1   1.00000     0.00000     0

 26 28  0     0  0            999 V2000
    4.3167   -6.7292    0.0000 C   0  0  0  0  0  0           0  0  0
    3.7917   -6.4292    0.0000 C   0  0  3  0  0  0           0  0  0
    4.3167   -7.3292    0.0000 C   0  0  0  0  0  0           0  0  0
    3.7917   -7.6292    0.0000 O   0  0  0  0  0  0           0  0  0
    3.2667   -7.3417    0.0000 C   0  0  3  0  0  0           0  0  0
    3.2667   -6.7292    0.0000 C   0  0  3  0  0  0           0  0  0
    4.8292   -6.4292    0.0000 C   0  0  0  0  0  0           0  0  0
    9.5292   -7.8667    0.0000 N   0  0  0  0  0  0           0  0  0
    2.7417   -6.4292    0.0000 C   0  0  0  0  0  0           0  0  0
    3.7917   -5.8292    0.0000 C   0  0  0  0  0  0           0  0  0
    2.7417   -5.8292    0.0000 C   0  0  0  0  0  0           0  0  0
    3.2792   -5.5292    0.0000 C   0  0  0  0  0  0           0  0  0
    8.9917   -7.5667    0.0000 C   0  0  0  0  0  0           0  0  0
    4.8292   -7.6292    0.0000 C   0  0  0  0  0  0           0  0  0
    5.3542   -6.7292    0.0000 C   0  0  0  0  0  0           0  0  0
    5.3542   -7.3292    0.0000 C   0  0  0  0  0  0           0  0  0
    6.3917   -7.3167    0.0000 C   0  0  0  0  0  0           0  0  0
    6.9167   -7.6042    0.0000 C   0  0  0  0  0  0           0  0  0
    4.8167   -5.8292    0.0000 O   0  0  0  0  0  0           0  0  0
    3.0667   -7.9042    0.0000 C   0  0  0  0  0  0           0  0  0
    2.7042   -7.1417    0.0000 C   0  0  0  0  0  0           0  0  0
    5.8792   -7.6167    0.0000 C   0  0  0  0  0  0           0  0  0
    8.4667   -7.2792    0.0000 C   0  0  0  0  0  0           0  0  0
    3.2917   -4.9292    0.0000 C   0  0  0  0  0  0           0  0  0
    7.4292   -7.2917    0.0000 C   0  0  0  0  0  0           0  0  0
    7.9542   -7.5917    0.0000 C   0  0  0  0  0  0           0  0  0
  2  1  1  0     0  0
  3  1  1  0     0  0
  4  3  1  0     0  0
  5  4  1  0     0  0
  6  2  1  0     0  0
  7  1  2  0     0  0
  8 13  3  0     0  0
  9  6  1  0     0  0
 10  2  1  0     0  0
 11 12  2  0     0  0
 12 10  1  0     0  0
 13 23  1  0     0  0
 14  3  2  0     0  0
 15  7  1  0     0  0
 16 15  2  0     0  0
 17 22  1  0     0  0
 18 17  2  0     0  0
 19  7  1  0     0  0
 20  5  1  0     0  0
 21  5  1  0     0  0
 22 16  1  0     0  0
 23 26  1  0     0  0
 24 12  1  0     0  0
 25 18  1  0     0  0
 26 25  1  0     0  0
  5  6  1  0     0  0
 16 14  1  0     0  0
 11  9  1  0     0  0
M  END