
          11280715052D 1   1.00000     0.00000     0

 39 43  0     0  0            999 V2000
    5.0500   -2.0667    0.0000 N   0  0  3  0  0  0           0  0  0
    4.7542   -2.9917    0.0000 N   0  0  3  0  0  0           0  0  0
    5.2375   -2.6417    0.0000 C   0  0  0  0  0  0           0  0  0
    4.4500   -2.0667    0.0000 N   0  0  0  0  0  0           0  0  0
    4.2667   -2.6417    0.0000 C   0  0  0  0  0  0           0  0  0
    5.4042   -1.5792    0.0000 C   0  0  3  0  0  0           0  0  0
    7.3417   -3.8917    0.0000 C   0  0  0  0  0  0           0  0  0
    6.8542   -3.5417    0.0000 N   0  0  0  0  0  0           0  0  0
    7.0417   -2.9792    0.0000 N   0  0  0  0  0  0           0  0  0
    7.8292   -3.5417    0.0000 N   0  0  0  0  0  0           0  0  0
    7.6417   -2.9667    0.0000 N   0  0  0  0  0  0           0  0  0
    6.0000   -1.6417    0.0000 C   0  0  0  0  0  0           0  0  0
    7.3500   -4.4917    0.0000 C   0  0  0  0  0  0           0  0  0
    6.8292   -4.7917    0.0000 C   0  0  0  0  0  0           0  0  0
    4.7542   -3.5917    0.0000 C   0  0  0  0  0  0           0  0  0
    5.8042   -2.8292    0.0000 O   0  0  0  0  0  0           0  0  0
    6.3125   -4.4917    0.0000 C   0  0  0  0  0  0           0  0  0
    6.2417   -2.1917    0.0000 O   0  0  0  0  0  0           0  0  0
    6.3500   -1.1542    0.0000 C   0  0  0  0  0  0           0  0  0
    6.3167   -3.8917    0.0000 C   0  0  0  0  0  0           0  0  0
    5.8000   -4.7917    0.0000 C   0  0  0  0  0  0           0  0  0
    5.2750   -3.8917    0.0000 C   0  0  0  0  0  0           0  0  0
    5.5542   -1.0042    0.0000 C   0  0  0  0  0  0           0  0  0
    4.8792   -1.2792    0.0000 C   0  0  0  0  0  0           0  0  0
    3.7000   -2.8292    0.0000 C   0  0  0  0  0  0           0  0  0
    5.7917   -3.5917    0.0000 C   0  0  0  0  0  0           0  0  0
    5.2792   -4.4917    0.0000 C   0  0  0  0  0  0           0  0  0
    7.8667   -4.7917    0.0000 C   0  0  0  0  0  0           0  0  0
    6.8292   -5.3917    0.0000 C   0  0  0  0  0  0           0  0  0
    6.9417   -1.2167    0.0000 C   0  0  0  0  0  0           0  0  0
    6.1042   -0.6167    0.0000 C   0  0  0  0  0  0           0  0  0
    3.2500   -2.4292    0.0000 C   0  0  0  0  0  0           0  0  0
    2.6792   -2.6167    0.0000 C   0  0  0  0  0  0           0  0  0
    7.8667   -5.3917    0.0000 C   0  0  0  0  0  0           0  0  0
    7.3500   -5.6917    0.0000 C   0  0  0  0  0  0           0  0  0
    2.2292   -2.2167    0.0000 C   0  0  0  0  0  0           0  0  0
    6.4542   -0.1292    0.0000 C   0  0  0  0  0  0           0  0  0
    7.3000   -0.7292    0.0000 C   0  0  0  0  0  0           0  0  0
    7.0542   -0.1917    0.0000 C   0  0  0  0  0  0           0  0  0
  2  3  1  0     0  0
  3  1  1  0     0  0
  4  1  1  0     0  0
  5  4  2  0     0  0
  6  1  1  0     0  0
  7 13  1  0     0  0
  8  7  1  0     0  0
  9  8  2  0     0  0
 10  7  2  0     0  0
 11 10  1  0     0  0
 12  6  1  0     0  0
 13 14  1  0     0  0
 14 17  1  0     0  0
 15  2  1  0     0  0
 16  3  2  0     0  0
 17 21  1  0     0  0
 18 12  2  0     0  0
 19 12  1  0     0  0
 20 26  1  0     0  0
 21 27  2  0     0  0
 22 15  1  0     0  0
 23  6  1  0     0  0
 24  6  1  0     0  0
 25  5  1  0     0  0
 26 22  2  0     0  0
 27 22  1  0     0  0
 28 13  2  0     0  0
 29 14  2  0     0  0
 30 19  2  0     0  0
 31 19  1  0     0  0
 32 25  1  0     0  0
 33 32  1  0     0  0
 34 35  2  0     0  0
 35 29  1  0     0  0
 36 33  1  0     0  0
 37 31  2  0     0  0
 38 30  1  0     0  0
 39 37  1  0     0  0
  5  2  1  0     0  0
 38 39  2  0     0  0
 17 20  2  0     0  0
 34 28  1  0     0  0
 11  9  1  0     0  0
M  END