
          03140815512D 1   1.00000     0.00000     0

 28 32  0     0  0            999 V2000
   -4.6198  -25.7624    0.0000 C   0  0  0  0  0  0           0  0  0
   -3.9785  -25.0788    0.0000 C   0  0  3  0  0  0           0  0  0
   -3.8153  -25.5374    0.0000 C   0  0  3  0  0  0           0  0  0
   -3.2672  -25.3414    0.0000 C   0  0  0  0  0  0           0  0  0
   -3.0626  -25.8402    0.0000 C   0  0  0  0  0  0           0  0  0
   -2.5193  -25.1559    0.0000 C   0  0  3  0  0  0           0  0  0
   -3.8222  -24.6891    0.0000 C   0  0  0  0  0  0           0  0  0
   -3.2614  -24.0270    0.0000 C   0  0  3  0  0  0           0  0  0
   -3.9830  -24.2834    0.0000 C   0  0  0  0  0  0           0  0  0
   -2.5135  -24.3370    0.0000 C   0  0  0  0  0  0           0  0  0
   -3.2667  -23.2000    0.0000 C   0  0  0  0  0  0           0  0  0
   -2.5548  -22.7830    0.0000 N   0  0  0  0  0  0           0  0  0
   -1.8378  -23.1910    0.0000 C   0  0  0  0  0  0           0  0  0
   -1.1259  -22.7739    0.0000 C   0  0  0  0  0  0           0  0  0
   -1.8325  -24.0159    0.0000 O   0  0  0  0  0  0           0  0  0
   -0.4115  -23.1825    0.0000 C   0  0  0  0  0  0           0  0  0
    0.2998  -22.7662    0.0000 C   0  0  0  0  0  0           0  0  0
    0.2951  -21.9404    0.0000 C   0  0  0  0  0  0           0  0  0
   -0.4270  -21.5326    0.0000 C   0  0  0  0  0  0           0  0  0
   -1.1354  -21.9512    0.0000 C   0  0  0  0  0  0           0  0  0
   -0.4074  -24.0075    0.0000 Cl  0  0  0  0  0  0           0  0  0
    1.0167  -23.1745    0.0000 C   0  0  0  0  0  0           0  0  0
    1.0215  -23.9995    0.0000 N   0  0  3  0  0  0           0  0  0
    0.3108  -24.4123    0.0000 C   0  0  0  0  0  0           0  0  0
    0.3136  -25.2337    0.0000 C   0  0  0  0  0  0           0  0  0
    1.0286  -25.6459    0.0000 C   0  0  0  0  0  0           0  0  0
    1.7425  -25.2304    0.0000 C   0  0  0  0  0  0           0  0  0
    1.7413  -24.4028    0.0000 C   0  0  0  0  0  0           0  0  0
 12 13  1  0     0  0
  2  4  1  0     0  0
 13 14  1  0     0  0
  3  5  1  0     0  0
 13 15  2  0     0  0
  4  6  1  0     0  0
 14 16  2  0     0  0
  5  6  1  0     0  0
 16 17  1  0     0  0
  7  8  1  0     0  0
 17 18  2  0     0  0
  3  7  1  0     0  0
 18 19  1  0     0  0
  2  9  1  0     0  0
 19 20  2  0     0  0
 20 14  1  0     0  0
  6 10  1  0     0  0
 16 21  1  0     0  0
 10  8  1  0     0  0
 17 22  1  0     0  0
  8  9  1  0     0  0
 22 23  1  0     0  0
 23 24  1  0     0  0
  8 11  1  0     0  0
  1  2  1  0     0  0
 11 12  1  0     0  0
  1  3  1  0     0  0
 23 28  1  0     0  0
 24 25  1  0     0  0
 25 26  1  0     0  0
 26 27  1  0     0  0
 27 28  1  0     0  0
M  END