
  SciTegic12231509382D

 19 20  0  0  0  0            999 V2000
   13.4542  -22.5250    0.0000 N   0  0
   13.4542  -23.3500    0.0000 C   0  0
   14.1662  -23.7583    0.0000 N   0  0
   14.8782  -23.3500    0.0000 C   0  0
   14.8782  -22.5250    0.0000 C   0  0
   14.1662  -22.1083    0.0000 C   0  0
   12.7403  -23.7635    0.0000 O   0  0
   14.1662  -21.2833    0.0000 O   0  0
   15.5939  -22.1146    0.0000 C   0  0
   14.1662  -24.5833    0.0000 C   0  0  2  0  0  0
   13.5048  -25.0695    0.0000 O   0  0
   13.7597  -25.8542    0.0000 C   0  0  1  0  0  0
   14.5848  -25.8542    0.0000 C   0  0  2  0  0  0
   14.8396  -25.0695    0.0000 C   0  0
   13.2748  -26.5216    0.0000 C   0  0
   12.4543  -26.4354    0.0000 O   0  0
   15.0697  -26.5216    0.0000 N   0  0
   14.7342  -27.2753    0.0000 N   0  3
   14.3167  -27.9875    0.0000 N   0  5
  2  3  1  0
 10  3  1  1
 10 11  1  0
  3  4  1  0
  4  5  2  0
  5  6  1  0
 11 12  1  0
 12 13  1  0
 13 14  1  0
 14 10  1  0
  2  7  2  0
 12 15  1  1
  1  2  1  0
 15 16  1  0
  6  8  2  0
 13 17  1  6
  1  6  1  0
 17 18  2  0
  5  9  1  0
 18 19  2  0
M  CHG  2  18   1  19  -1
M  END