
  SciTegic09261410572D

 49 46  0  0  0  0            999 V2000
   -2.2228    1.0817    0.0000 C   0  0  2  0  0  0
   -2.9373    0.6692    0.0000 C   0  0  2  0  0  0
   -1.5083    0.6692    0.0000 C   0  0  1  0  0  0
   -2.9373    2.3192    0.0000 S   0  0
   -4.3662    0.6692    0.0000 S   0  0
   -0.7939    1.9067    0.0000 S   0  0
    1.3496   -2.6308    0.0000 S   0  0
   -2.9373   -0.1558    0.0000 C   0  0  2  0  0  0
   -2.2228   -0.5683    0.0000 O   0  0
   -1.5083   -0.1558    0.0000 C   0  0  1  0  0  0
   -2.2228    1.9067    0.0000 O   0  0
   -3.6517    1.0817    0.0000 O   0  0
   -0.7939    1.0817    0.0000 O   0  0
    1.3496   -1.8058    0.0000 C   0  0
    2.0640   -0.5683    0.0000 N   0  0
    3.4930   -0.5683    0.0000 C   0  0
    1.3496   -0.1558    0.0000 C   0  0
    1.3496   -3.4558    0.0000 O   0  5
   -3.6517    2.7317    0.0000 O   0  5
   -0.7939    2.7317    0.0000 O   0  5
   -5.0807    0.2567    0.0000 O   0  5
    0.5246   -2.6308    0.0000 O   0  0
    2.1746   -2.6308    0.0000 O   0  0
   -3.9537   -0.0453    0.0000 O   0  0
   -4.7787    1.3836    0.0000 O   0  0
   -2.5248    3.0336    0.0000 O   0  0
    0.0311    1.9067    0.0000 O   0  0
   -3.3498    1.6047    0.0000 O   0  0
   -1.6189    1.9067    0.0000 O   0  0
    2.7785   -0.1558    0.0000 C   0  0
    4.2074   -0.1558    0.0000 N   0  0
    2.0640   -1.3933    0.0000 C   0  0
    1.3496    0.6692    0.0000 O   0  0
    3.4930   -1.3933    0.0000 O   0  0
   -3.6517   -0.5683    0.0000 O   0  0
   -0.0794   -0.1558    0.0000 O   0  0
   -0.7939   -0.5683    0.0000 C   0  0
    0.6351   -0.5683    0.0000 C   0  0
    4.9219   -0.5683    0.0000 C   0  0
    8.5901    0.0000    0.0000 Na  0  3
    9.5919    0.0000    0.0000 Na  0  3
    0.0000   -5.1058    0.0000 Na  0  3
    1.0018   -5.1058    0.0000 Na  0  3
   -3.6517   -1.3933    0.0000 C   0  0
    4.9219   -1.3933    0.0000 C   0  0
    5.6364   -0.1558    0.0000 C   0  0
    6.3509   -0.5683    0.0000 C   0  0
    5.6364   -1.8058    0.0000 C   0  0
    6.3509   -1.3933    0.0000 C   0  0
  2  1  1  0
  3  1  1  0
  4 11  1  0
  5 12  1  0
  6 13  1  0
  7 14  1  0
  8  2  1  0
  9 10  1  0
 10  3  1  0
  1 11  1  1
  2 12  1  6
  3 13  1  6
 14 32  1  0
 15 17  1  0
 16 30  1  0
 17 38  1  0
 18  7  1  0
 19  4  1  0
 20  6  1  0
 21  5  1  0
 22  7  2  0
 23  7  2  0
 24  5  2  0
 25  5  2  0
 26  4  2  0
 27  6  2  0
 28  4  2  0
 29  6  2  0
 30 15  1  0
 31 16  1  0
 32 15  1  0
 33 17  2  0
 34 16  2  0
  8 35  1  6
 36 37  1  0
 10 37  1  6
 38 36  1  0
 39 31  1  0
 44 35  1  0
 45 39  1  0
 46 39  1  0
 47 46  1  0
 48 45  1  0
 49 47  1  0
  9  8  1  0
 48 49  1  0
M  CHG  8  18  -1  19  -1  20  -1  21  -1  40   1  41   1  42   1  43   1
M  END