
  SciTegic02181312462D

 41 44  0  0  0  0            999 V2000
   15.3762  -12.9710    0.0000 C   0  0
   15.3905  -12.1784    0.0000 C   0  0
   14.7122  -11.7664    0.0000 C   0  0
   14.0167  -12.1500    0.0000 C   0  0
   14.0024  -12.9425    0.0000 C   0  0
   14.6776  -13.3519    0.0000 C   0  0
   16.0860  -11.7948    0.0000 C   0  0
   13.3384  -11.7379    0.0000 F   0  0
   16.0750  -13.3946    0.0000 C   0  0
   16.7723  -14.5823    0.0000 C   0  0
   16.0819  -14.1897    0.0000 C   0  0
   16.7614  -12.9937    0.0000 C   0  0
   17.4518  -13.3863    0.0000 C   0  0
   17.4559  -14.1790    0.0000 N   0  0
   18.1144  -12.9418    0.0000 N   0  0
   18.1315  -12.1503    0.0000 C   0  0
   18.9062  -11.9549    0.0000 C   0  0  2  0  0  0
   19.3431  -12.5881    0.0000 C   0  0
   18.8522  -13.2151    0.0000 C   0  0
   19.1720  -11.1878    0.0000 O   0  0
   15.3766  -14.6025    0.0000 N   0  0
   14.6665  -14.1981    0.0000 C   0  0
   15.3814  -15.4197    0.0000 C   0  0
   14.6761  -15.8324    0.0000 C   0  0
   16.0915  -15.8241    0.0000 O   0  0
   14.6810  -16.6496    0.0000 C   0  0
   13.9735  -17.0600    0.0000 C   0  0
   13.9780  -17.8764    0.0000 C   0  0
   14.6886  -18.2816    0.0000 C   0  0
   15.3962  -17.8645    0.0000 C   0  0
   15.3882  -17.0494    0.0000 C   0  0
   14.4577  -15.0396    0.0000 C   0  0
   13.8551  -15.8320    0.0000 C   0  0
   16.1077  -18.2664    0.0000 C   0  0
   16.1155  -19.0835    0.0000 F   0  0
   16.8116  -17.8511    0.0000 F   0  0
   16.8102  -18.6716    0.0000 F   0  0
   13.2725  -18.2888    0.0000 C   0  0
   12.5626  -17.8841    0.0000 F   0  0
   13.2769  -19.1060    0.0000 F   0  0
   12.4766  -18.4982    0.0000 F   0  0
  1  2  1  0
  2  3  2  0
  3  4  1  0
  4  5  2  0
  5  6  1  0
  1  6  2  0
  2  7  1  0
  4  8  1  0
  1  9  1  0
 10 11  1  0
 11  9  2  0
  9 12  1  0
 12 13  2  0
 13 14  1  0
 10 14  2  0
 15 16  1  0
 16 17  1  0
 17 18  1  0
 18 19  1  0
 15 19  1  0
 17 20  1  1
 13 15  1  0
 11 21  1  0
 21 22  1  0
 21 23  1  0
 23 24  1  0
 23 25  2  0
 24 26  1  0
 26 27  2  0
 27 28  1  0
 28 29  2  0
 29 30  1  0
 30 31  2  0
 31 26  1  0
 24 32  1  0
 24 33  1  0
 30 34  1  0
 34 35  1  0
 34 36  1  0
 34 37  1  0
 28 38  1  0
 38 39  1  0
 38 40  1  0
 38 41  1  0
M  END