
  SciTegic02271514512D

 24 26  0  0  0  0            999 V2000
    2.1296  -15.6752    0.0000 C   0  0
    2.1296  -16.4924    0.0000 C   0  0
    2.8349  -16.8969    0.0000 C   0  0
    3.5402  -16.4924    0.0000 C   0  0
    3.5402  -15.6752    0.0000 C   0  0
    2.8349  -15.2625    0.0000 C   0  0
    1.4235  -16.9025    0.0000 C   0  0
    0.7149  -16.4932    0.0000 C   0  0
    0.0083  -16.9022    0.0000 C   0  0
    0.0090  -17.7202    0.0000 C   0  0
    0.7223  -18.1276    0.0000 C   0  0
    1.4260  -17.7163    0.0000 C   0  0
    2.8349  -14.4453    0.0000 O   0  0
    4.2491  -15.2687    0.0000 S   0  0
    4.9556  -15.6794    0.0000 C   0  0
    4.2473  -16.9020    0.0000 O   0  0
    4.9516  -16.4976    0.0000 C   0  0
    5.6573  -16.9082    0.0000 C   0  0
    6.3672  -16.5016    0.0000 C   0  0
    6.3670  -15.6802    0.0000 C   0  0
    5.6607  -15.2733    0.0000 C   0  0
    5.6608  -14.4561    0.0000 Cl  0  0
    0.7146  -15.6760    0.0000 Cl  0  0
    2.1354  -18.1220    0.0000 Br  0  0
  1  2  1  0
  1  6  1  0
  2  3  1  0
  3  4  1  0
  4  5  1  0
  5  6  2  0
  7  8  2  0
  8  9  1  0
  9 10  2  0
 10 11  1  0
 11 12  2  0
 12  7  1  0
  2  7  1  0
  6 13  1  0
  5 14  1  0
 14 15  1  0
  4 16  2  0
 15 17  2  0
 17 18  1  0
 18 19  2  0
 19 20  1  0
 20 21  2  0
 21 15  1  0
 21 22  1  0
  8 23  1  0
 12 24  1  0
M  END