
          11280715332D 1   1.00000     0.00000     0

 45 49  0     1  0            999 V2000
    5.8792   -2.7042    0.0000 C   0  0  1  0  0  0           0  0  0
    6.5917   -3.1167    0.0000 C   0  0  0  0  0  0           0  0  0
    3.7375   -3.1167    0.0000 C   0  0  2  0  0  0           0  0  0
    7.3125   -2.7042    0.0000 N   0  0  0  0  0  0           0  0  0
    5.1667   -3.1167    0.0000 C   0  0  1  0  0  0           0  0  0
    4.4542   -2.7042    0.0000 C   0  0  1  0  0  0           0  0  0
    8.0292   -3.1125    0.0000 C   0  0  3  0  0  0           0  0  0
    3.0250   -2.7042    0.0000 C   0  0  0  0  0  0           0  0  0
    8.0667   -3.9292    0.0000 C   0  0  0  0  0  0           0  0  0
    8.8625   -4.1417    0.0000 C   0  0  0  0  0  0           0  0  0
    8.7917   -2.8167    0.0000 C   0  0  1  0  0  0           0  0  0
    5.8792   -1.8792    0.0000 O   0  0  0  0  0  0           0  0  0
    3.7375   -3.9417    0.0000 O   0  0  0  0  0  0           0  0  0
    9.3125   -3.4625    0.0000 C   0  0  0  0  0  0           0  0  0
    2.3125   -3.1167    0.0000 N   0  0  0  0  0  0           0  0  0
    6.5917   -3.9417    0.0000 O   0  0  0  0  0  0           0  0  0
    3.0250   -1.8792    0.0000 O   0  0  0  0  0  0           0  0  0
    4.4542   -1.8792    0.0000 O   0  0  0  0  0  0           0  0  0
    5.1667   -3.9417    0.0000 O   0  0  0  0  0  0           0  0  0
    6.6667   -1.4417    0.0000 C   0  0  0  0  0  0           0  0  0
    3.0250   -4.3542    0.0000 C   0  0  0  0  0  0           0  0  0
    1.5917   -2.7042    0.0000 C   0  0  0  0  0  0           0  0  0
    9.0125   -2.0250    0.0000 O   0  0  0  0  0  0           0  0  0
    6.6375   -0.6167    0.0000 C   0  0  0  0  0  0           0  0  0
    3.0250   -5.1792    0.0000 C   0  0  0  0  0  0           0  0  0
    0.8792   -3.1167    0.0000 C   0  0  0  0  0  0           0  0  0
    7.4792   -4.5042    0.0000 C   0  0  0  0  0  0           0  0  0
    9.0667   -4.9500    0.0000 C   0  0  0  0  0  0           0  0  0
    7.3375   -0.1792    0.0000 C   0  0  0  0  0  0           0  0  0
    0.1667   -2.7042    0.0000 C   0  0  0  0  0  0           0  0  0
    2.3042   -5.5917    0.0000 C   0  0  0  0  0  0           0  0  0
    3.7375   -5.5917    0.0000 C   0  0  0  0  0  0           0  0  0
    5.9042   -0.2292    0.0000 C   0  0  0  0  0  0           0  0  0
    0.8792   -3.9417    0.0000 C   0  0  0  0  0  0           0  0  0
    7.6792   -5.3042    0.0000 C   0  0  0  0  0  0           0  0  0
    8.4792   -5.5292    0.0000 C   0  0  0  0  0  0           0  0  0
    5.8792    0.5958    0.0000 C   0  0  0  0  0  0           0  0  0
    2.3042   -6.4167    0.0000 C   0  0  0  0  0  0           0  0  0
    3.7417   -6.4167    0.0000 C   0  0  0  0  0  0           0  0  0
   -0.5458   -3.1167    0.0000 C   0  0  0  0  0  0           0  0  0
    0.1667   -4.3542    0.0000 C   0  0  0  0  0  0           0  0  0
    7.3042    0.6458    0.0000 C   0  0  0  0  0  0           0  0  0
    6.5792    1.0333    0.0000 C   0  0  0  0  0  0           0  0  0
    3.0250   -6.8292    0.0000 C   0  0  0  0  0  0           0  0  0
   -0.5458   -3.9417    0.0000 C   0  0  0  0  0  0           0  0  0
  2  1  1  0     0  0
  3  6  1  0     0  0
  4  2  1  0     0  0
  5  1  1  0     0  0
  6  5  1  0     0  0
  4  7  1  0     0  0
  8  3  1  0     0  0
  9  7  1  0     0  0
 10  9  1  0     0  0
 11  7  1  0     0  0
  1 12  1  1     0  0
  3 13  1  1     0  0
 14 11  1  0     0  0
 15  8  1  0     0  0
 16  2  2  0     0  0
 17  8  2  0     0  0
  6 18  1  6     0  0
  5 19  1  6     0  0
 20 12  1  0     0  0
 21 13  1  0     0  0
 22 15  1  0     0  0
 11 23  1  6     0  0
 24 20  1  0     0  0
 25 21  1  0     0  0
 26 22  1  0     0  0
 27  9  2  0     0  0
 28 10  2  0     0  0
 29 24  2  0     0  0
 30 26  2  0     0  0
 31 25  2  0     0  0
 32 25  1  0     0  0
 33 24  1  0     0  0
 34 26  1  0     0  0
 35 27  1  0     0  0
 36 35  2  0     0  0
 37 33  2  0     0  0
 38 31  1  0     0  0
 39 32  2  0     0  0
 40 30  1  0     0  0
 41 34  2  0     0  0
 42 29  1  0     0  0
 43 37  1  0     0  0
 44 39  1  0     0  0
 45 41  1  0     0  0
 14 10  1  0     0  0
 42 43  2  0     0  0
 28 36  1  0     0  0
 44 38  2  0     0  0
 45 40  2  0     0  0
M  END