
          11280715042D 1   1.00000     0.00000     0

 45 48  0     0  0            999 V2000
   -1.6333    1.3333    0.0000 C   0  0  0  0  0  0           0  0  0
   -1.6333    0.5083    0.0000 N   0  0  3  0  0  0           0  0  0
    5.5042   -1.1750    0.0000 C   0  0  0  0  0  0           0  0  0
    3.3625   -0.7542    0.0000 C   0  0  0  0  0  0           0  0  0
    6.2167   -0.7667    0.0000 C   0  0  0  0  0  0           0  0  0
    4.7917   -0.7625    0.0000 N   0  0  3  0  0  0           0  0  0
   -2.3458    1.7500    0.0000 C   0  0  3  0  0  0           0  0  0
    2.6417   -1.9875    0.0000 C   0  0  0  0  0  0           0  0  0
    4.0750   -1.1667    0.0000 C   0  0  0  0  0  0           0  0  0
    2.6417   -1.1625    0.0000 C   0  0  3  0  0  0           0  0  0
   -0.9208    0.0958    0.0000 C   0  0  3  0  0  0           0  0  0
    0.5042   -0.7375    0.0000 N   0  0  3  0  0  0           0  0  0
    3.3500   -2.3917    0.0000 C   0  0  0  0  0  0           0  0  0
    3.3500   -3.2167    0.0000 C   0  0  0  0  0  0           0  0  0
    3.3667    0.0708    0.0000 N   0  0  0  0  0  0           0  0  0
   -1.6333    2.9875    0.0000 C   0  0  0  0  0  0           0  0  0
    1.9292   -0.7417    0.0000 C   0  0  0  0  0  0           0  0  0
    6.2167    0.0583    0.0000 C   0  0  0  0  0  0           0  0  0
    6.9292   -1.1875    0.0000 C   0  0  0  0  0  0           0  0  0
   -0.9208    1.7458    0.0000 O   0  0  0  0  0  0           0  0  0
   -2.3458    2.5833    0.0000 C   0  0  0  0  0  0           0  0  0
   -0.9208   -0.7292    0.0000 C   0  0  0  0  0  0           0  0  0
   -0.2083    0.5083    0.0000 C   0  0  0  0  0  0           0  0  0
    2.6292   -3.6292    0.0000 C   0  0  0  0  0  0           0  0  0
    5.5000   -2.0000    0.0000 O   0  0  0  0  0  0           0  0  0
    7.6417   -0.7792    0.0000 C   0  0  0  0  0  0           0  0  0
    6.9292    0.4625    0.0000 C   0  0  0  0  0  0           0  0  0
    7.6500    0.0458    0.0000 C   0  0  0  0  0  0           0  0  0
    1.9250   -2.3917    0.0000 C   0  0  0  0  0  0           0  0  0
   -1.6333    3.8125    0.0000 O   0  0  0  0  0  0           0  0  0
    1.2167   -1.1542    0.0000 C   0  0  0  0  0  0           0  0  0
    1.9167   -3.2167    0.0000 C   0  0  0  0  0  0           0  0  0
   -0.2125   -1.1417    0.0000 C   0  0  0  0  0  0           0  0  0
    0.5042    0.0875    0.0000 C   0  0  0  0  0  0           0  0  0
   -0.9208    2.5833    0.0000 N   0  0  0  0  0  0           0  0  0
   -2.3458    0.1000    0.0000 C   0  0  0  0  0  0           0  0  0
    4.0625   -3.6292    0.0000 Cl  0  0  0  0  0  0           0  0  0
    2.6292   -4.4542    0.0000 Cl  0  0  0  0  0  0           0  0  0
    6.9292    1.2875    0.0000 Cl  0  0  0  0  0  0           0  0  0
    8.3542   -1.1917    0.0000 Cl  0  0  0  0  0  0           0  0  0
    4.0792    0.4833    0.0000 O   0  0  0  0  0  0           0  0  0
    4.7917    0.0625    0.0000 C   0  0  0  0  0  0           0  0  0
   -3.0583    1.3333    0.0000 C   0  0  0  0  0  0           0  0  0
   -3.0583    0.5083    0.0000 C   0  0  0  0  0  0           0  0  0
    4.8000    0.8833    0.0000 C   0  0  0  0  0  0           0  0  0
  2  1  1  0     0  0
  3  6  1  0     0  0
  4 10  1  0     0  0
  5  3  1  0     0  0
  6  9  1  0     0  0
  7  1  1  0     0  0
 10  8  1  0     0  0
  9  4  1  0     0  0
 10 17  1  0     0  0
 11  2  1  0     0  0
 12 34  1  0     0  0
 13  8  1  0     0  0
 14 13  2  0     0  0
 15  4  2  0     0  0
 16 21  1  0     0  0
 17 31  1  0     0  0
 18  5  1  0     0  0
 19  5  2  0     0  0
 20  1  2  0     0  0
  7 21  1  0     0  0
 22 11  1  0     0  0
 23 11  1  0     0  0
 24 32  2  0     0  0
 25  3  2  0     0  0
 26 19  1  0     0  0
 27 18  2  0     0  0
 28 26  2  0     0  0
 29  8  2  0     0  0
 30 16  2  0     0  0
 31 12  1  0     0  0
 32 29  1  0     0  0
 33 22  1  0     0  0
 34 23  1  0     0  0
 35 16  1  0     0  0
 36  2  1  0     0  0
 37 14  1  0     0  0
 38 24  1  0     0  0
 39 27  1  0     0  0
 40 26  1  0     0  0
 41 15  1  0     0  0
 42  6  1  0     0  0
 43  7  1  0     0  0
 44 43  1  0     0  0
 45 41  1  0     0  0
 36 44  1  0     0  0
 33 12  1  0     0  0
 14 24  1  0     0  0
 28 27  1  0     0  0
M  END