
  SciTegic06051313522D

 23 25  0  0  0  0            999 V2000
    0.4826  -24.8362    0.0000 C   0  0
    1.1923  -24.4268    0.0000 C   0  0
    1.1894  -23.6041    0.0000 C   0  0
    0.4808  -23.1988    0.0000 C   0  0
    1.8956  -23.1929    0.0000 N   0  0
    2.6049  -23.5988    0.0000 C   0  0
   -0.2286  -24.4272    0.0000 C   0  0
   -0.2298  -23.6062    0.0000 C   0  0
   -1.0094  -23.3512    0.0000 N   0  0
   -1.4915  -24.0148    0.0000 O   0  0
   -1.0074  -24.6797    0.0000 N   0  0
    0.4808  -22.3779    0.0000 N   0  3
   -0.2345  -21.9708    0.0000 O   0  0
    1.1876  -21.9677    0.0000 O   0  5
    2.6046  -24.4136    0.0000 C   0  0
    3.3130  -24.8195    0.0000 C   0  0
    4.0202  -24.4082    0.0000 C   0  0
    4.0144  -23.5868    0.0000 C   0  0
    3.3055  -23.1846    0.0000 C   0  0
    3.3157  -25.6367    0.0000 C   0  0
    2.6093  -26.0476    0.0000 F   0  0
    4.0247  -26.0429    0.0000 F   0  0
    3.3100  -26.4514    0.0000 F   0  0
  7  1  1  0
  1  2  2  0
  2  3  1  0
  3  4  2  0
  4  8  1  0
  3  5  1  0
  5  6  1  0
  7  8  1  0
  8  9  2  0
  9 10  1  0
 10 11  1  0
 11  7  2  0
 12 13  2  0
 12 14  1  0
  4 12  1  0
  6 15  2  0
 15 16  1  0
 16 17  2  0
 17 18  1  0
 18 19  2  0
 19  6  1  0
 16 20  1  0
 20 21  1  0
 20 22  1  0
 20 23  1  0
M  CHG  2  12   1  14  -1
M  END