
  SciTegic12171313032D

 26 28  0  0  0  0            999 V2000
   16.2722  -13.4300    0.0000 C   0  0
   16.2711  -14.2495    0.0000 C   0  0
   16.9791  -14.6585    0.0000 N   0  0
   17.6888  -14.2490    0.0000 C   0  0
   17.6860  -13.4264    0.0000 C   0  0
   16.9774  -13.0211    0.0000 N   0  0
   18.3972  -14.6565    0.0000 N   0  0
   18.3921  -13.0151    0.0000 N   0  0
   18.3891  -12.1979    0.0000 C   0  0  1  0  0  0
   19.0952  -11.7867    0.0000 C   0  0
   17.6798  -11.7920    0.0000 C   0  0
   19.7997  -12.1961    0.0000 C   0  0
   20.5054  -11.7855    0.0000 C   0  0
   20.5028  -10.9675    0.0000 C   0  0
   19.7886  -10.5617    0.0000 C   0  0
   19.0858  -10.9747    0.0000 C   0  0
   15.5665  -13.0217    0.0000 C   0  0
   15.5677  -12.2034    0.0000 C   0  0
   14.8607  -11.7951    0.0000 C   0  0
   14.1521  -12.2039    0.0000 C   0  0
   14.1549  -13.0253    0.0000 C   0  0
   14.8625  -13.4299    0.0000 C   0  0
   13.4468  -13.4344    0.0000 C   0  0
   12.7376  -13.0284    0.0000 O   0  0
   13.4499  -14.2516    0.0000 O   0  0
   14.8609  -10.9779    0.0000 C   0  0
  1  2  2  0
  2  3  1  0
  3  4  2  0
  4  5  1  0
  5  6  2  0
  6  1  1  0
  4  7  1  0
  5  8  1  0
  8  9  1  0
  9 10  1  0
  9 11  1  6
 10 12  2  0
 12 13  1  0
 13 14  2  0
 14 15  1  0
 15 16  2  0
 16 10  1  0
 17 18  2  0
 18 19  1  0
 19 20  2  0
 20 21  1  0
 21 22  2  0
 22 17  1  0
  1 17  1  0
 23 24  1  0
 23 25  2  0
 21 23  1  0
 19 26  1  0
M  END