
          11280715492D 1   1.00000     0.00000     0

 24 25  0     1  0            999 V2000
   12.9667  -22.9042    0.0000 C   0  0  0  0  0  0           0  0  0
   12.9667  -23.7292    0.0000 C   0  0  0  0  0  0           0  0  0
   13.6787  -24.1375    0.0000 N   0  0  3  0  0  0           0  0  0
   14.3907  -23.7292    0.0000 C   0  0  0  0  0  0           0  0  0
   14.3907  -22.9042    0.0000 N   0  0  3  0  0  0           0  0  0
   13.6787  -22.4875    0.0000 C   0  0  0  0  0  0           0  0  0
   13.6787  -21.6625    0.0000 O   0  0  0  0  0  0           0  0  0
   15.1046  -24.1427    0.0000 O   0  0  0  0  0  0           0  0  0
   15.1050  -22.4887    0.0000 C   0  0  0  0  0  0           0  0  0
   15.8208  -22.8989    0.0000 C   0  0  0  0  0  0           0  0  0
   15.8207  -23.7219    0.0000 C   0  0  0  0  0  0           0  0  0
   16.5356  -24.1320    0.0000 C   0  0  0  0  0  0           0  0  0
   17.2498  -23.7172    0.0000 C   0  0  0  0  0  0           0  0  0
   17.2445  -22.8879    0.0000 C   0  0  0  0  0  0           0  0  0
   16.5289  -22.4815    0.0000 C   0  0  0  0  0  0           0  0  0
   13.6787  -24.9625    0.0000 C   0  0  0  0  0  0           0  0  0
   12.9642  -25.3750    0.0000 C   0  0  1  0  0  0           0  0  0
   12.9642  -26.2000    0.0000 C   0  0  0  0  0  0           0  0  0
   12.2497  -24.9625    0.0000 N   0  0  0  0  0  0           0  0  0
   12.2497  -26.6125    0.0000 O   0  0  0  0  0  0           0  0  0
   13.6787  -26.6125    0.0000 O   0  0  0  0  0  0           0  0  0
   17.9661  -24.1264    0.0000 C   0  0  0  0  0  0           0  0  0
   17.9699  -24.9514    0.0000 O   0  0  0  0  0  0           0  0  0
   18.6787  -23.7107    0.0000 O   0  0  0  0  0  0           0  0  0
 11 12  1  0     0  0
  5  6  1  0     0  0
 12 13  2  0     0  0
 13 14  1  0     0  0
  6  7  2  0     0  0
 14 15  2  0     0  0
 15 10  1  0     0  0
  1  2  2  0     0  0
  3 16  1  0     0  0
  4  8  2  0     0  0
 16 17  1  0     0  0
  1  6  1  0     0  0
 17 18  1  0     0  0
  5  9  1  0     0  0
 17 19  1  1     0  0
  2  3  1  0     0  0
 18 20  1  0     0  0
  9 10  1  0     0  0
 18 21  2  0     0  0
  3  4  1  0     0  0
 13 22  1  0     0  0
 10 11  2  0     0  0
 22 23  2  0     0  0
  4  5  1  0     0  0
 22 24  1  0     0  0
M  END