
  SciTegic11201309402D

 75 78  0  0  1  0            999 V2000
   13.6500   -7.1792    0.0000 N   0  0
   13.6375   -6.3542    0.0000 C   0  0
   12.9917   -7.6667    0.0000 C   0  0  2  0  0  0
   12.9250   -5.9625    0.0000 C   0  0  2  0  0  0
   12.9125   -5.1417    0.0000 N   0  0
   12.2000   -4.7417    0.0000 C   0  0
   12.2167   -6.3792    0.0000 C   0  0
   14.3125   -7.6500    0.0000 C   0  0  2  0  0  0
    0.8500   -2.4417    0.0000 C   0  0
   13.2500   -8.4375    0.0000 C   0  0
   -1.2750   -2.8750    0.0000 C   0  0
   12.1875   -3.9292    0.0000 C   0  0  1  0  0  0
    1.5625   -2.8417    0.0000 N   0  0
   -0.5708   -2.4542    0.0000 N   0  0
   12.4042   -8.2500    0.0000 C   0  0
   14.0750   -8.4292    0.0000 C   0  0  2  0  0  0
    4.3542   -0.3542    0.0000 C   0  0
   11.4750   -3.5292    0.0000 N   0  0
    2.9750   -2.8167    0.0000 C   0  0
   11.4667   -6.0542    0.0000 C   0  0
   12.1417   -7.1917    0.0000 C   0  0
   11.3500   -7.3667    0.0000 C   0  0
   10.9250   -6.6667    0.0000 C   0  0
    0.1417   -2.8542    0.0000 C   0  0  1  0  0  0
   11.4625   -2.7042    0.0000 C   0  0
   14.3375   -5.9417    0.0000 O   0  0
    2.2542   -2.4167    0.0000 C   0  0  2  0  0  0
    4.3667   -1.1667    0.0000 N   0  0
   11.5000   -5.1625    0.0000 O   0  0
    0.8375   -1.6167    0.0000 O   0  0
   -1.2625   -3.6917    0.0000 O   0  0
   11.6125   -8.0292    0.0000 O   0  0
    2.9875   -3.6375    0.0000 O   0  0
   12.1667   -2.2917    0.0000 O   0  0
   -1.9875   -2.4750    0.0000 C   0  0  1  0  0  0
    3.6417    0.0458    0.0000 N   0  0
    3.6750   -2.4000    0.0000 N   0  0
    5.0625    0.0708    0.0000 N   0  0
   12.6125   -9.0417    0.0000 O   0  0
   -2.6875   -2.8917    0.0000 N   0  0
   12.8875   -3.5042    0.0000 C   0  0
    1.6000   -6.1042    0.0000 N   0  0
   -0.6125    0.8083    0.0000 N   0  0
   15.1125   -7.4667    0.0000 C   0  0
   13.6042   -3.9042    0.0000 O   0  0
   14.6250   -9.0292    0.0000 C   0  0
   10.7500   -2.3042    0.0000 C   0  0
   10.9500   -8.0792    0.0000 C   0  0
   10.1125   -6.6792    0.0000 C   0  0
    0.1542   -3.6750    0.0000 C   0  0
    2.2500   -1.6042    0.0000 C   0  0
    2.9375   -0.3667    0.0000 C   0  0
    4.3875   -2.8000    0.0000 C   0  0
   -1.9958   -1.6542    0.0000 C   0  0
   -0.6000   -0.0042    0.0000 C   0  0
    1.5875   -5.2875    0.0000 C   0  0
    2.9500   -1.1875    0.0000 C   0  0
   10.0500   -2.7292    0.0000 C   0  0
    0.8625   -4.0667    0.0000 C   0  0
    5.0917   -2.3792    0.0000 C   0  0
   -1.3083   -0.4250    0.0000 C   0  0
    0.8750   -4.8917    0.0000 C   0  0
   -1.2958   -1.2417    0.0000 C   0  0
    7.9250   -2.3500    0.0000 C   0  0
    8.6375   -2.7500    0.0000 C   0  0
    9.3375   -2.3292    0.0000 C   0  0
    5.8000   -2.7792    0.0000 C   0  0
    6.5042   -2.3667    0.0000 C   0  0
    7.2167   -2.7667    0.0000 C   0  0
   15.6625   -8.0667    0.0000 C   0  0
   15.4250   -8.8500    0.0000 C   0  0
   10.1292   -8.0917    0.0000 C   0  0
    9.7125   -7.3917    0.0000 C   0  0
   13.7000   -9.1542    0.0000 H   0  0
   14.4125   -6.8375    0.0000 H   0  0
  2  1  1  0
  3  1  1  0
  4  2  1  0
  4  5  1  1
  6  5  1  0
  4  7  1  0
  8  1  1  0
  9 13  1  0
  3 10  1  0
 11 14  1  0
 12  6  1  0
 27 13  1  1
 24 14  1  6
  3 15  1  6
 16  8  1  0
 17 36  2  0
 12 18  1  1
 19 37  1  0
 20  7  1  0
 21  7  1  0
 22 21  1  0
 23 20  1  0
 24  9  1  0
 25 18  1  0
 26  2  2  0
 27 19  1  0
 28 17  1  0
 29  6  2  0
 30  9  2  0
 31 11  2  0
 32 15  2  0
 33 19  2  0
 34 25  2  0
 35 11  1  0
 36 52  1  0
 37 53  1  0
 38 17  1  0
 39 15  1  0
 35 40  1  1
 12 41  1  0
 42 56  1  0
 43 55  1  0
 44  8  1  0
 45 41  1  0
 46 16  1  0
 47 25  1  0
 48 22  1  0
 49 23  1  0
 24 50  1  0
 27 51  1  0
 52 57  1  0
 53 60  1  0
 35 54  1  0
 55 61  1  0
 56 62  1  0
 57 51  1  0
 58 47  1  0
 59 50  1  0
 60 67  1  0
 61 63  1  0
 62 59  1  0
 63 54  1  0
 64 65  1  0
 65 66  1  0
 66 58  1  0
 67 68  1  0
 68 69  1  0
 69 64  1  0
 70 44  1  0
 71 70  1  0
 72 48  2  0
 73 49  2  0
 16 74  1  6
  8 75  1  6
 16 10  1  0
 71 46  1  0
 23 22  2  0
 72 73  1  0
M  END