
  SciTegic01091216402D

 21 22  0  0  0  0            999 V2000
    6.3765   -5.8274    0.0000 N   0  0
    6.3652   -6.6527    0.0000 N   0  0
    7.1435   -6.9139    0.0000 C   0  0
    7.6369   -6.2526    0.0000 C   0  0
    7.1602   -5.5817    0.0000 C   0  0
    5.6688   -5.4036    0.0000 C   0  0
    4.9494   -5.8050    0.0000 N   0  0
    5.6822   -4.5823    0.0000 N   0  0
    8.4621   -6.2639    0.0000 C   0  0
    8.8650   -6.9845    0.0000 C   0  0
    6.4016   -4.1809    0.0000 C   0  0
    7.1076   -4.6009    0.0000 C   0  0
    4.2423   -5.3806    0.0000 S   0  0
    4.6633   -4.6792    0.0000 O   0  0
    3.5817   -5.8748    0.0000 C   0  0
    3.5955   -6.7002    0.0000 C   0  0
    2.8128   -6.9675    0.0000 C   0  0
    2.3187   -6.3069    0.0000 C   0  0
    2.7941   -5.6341    0.0000 S   0  0
    1.4974   -6.3202    0.0000 Cl  0  0
    3.6529   -4.7929    0.0000 O   0  0
  1  2  1  0
  2  3  2  0
  3  4  1  0
  4  5  1  0
  1  5  1  0
  6  7  2  0
  6  8  1  0
  1  6  1  0
  9 10  1  0
  4  9  1  0
 11 12  1  0
  8 11  1  0
 13 14  2  0
 15 16  2  0
 16 17  1  0
 17 18  2  0
 18 19  1  0
 15 19  1  0
 13 15  1  0
 18 20  1  0
  7 13  1  0
 13 21  2  0
M  END