
  Mrv0541 04051115152D          

 26 28  0  0  0  0            999 V2000
    3.7000    0.1640    0.0000 F   0  0  0  0  0  0  0  0  0  0  0  0
    2.9856    0.5765    0.0000 C   0  0  0  0  0  0  0  0  0  0  0  0
    2.9856    1.4015    0.0000 C   0  0  0  0  0  0  0  0  0  0  0  0
    2.2711    1.8140    0.0000 C   0  0  0  0  0  0  0  0  0  0  0  0
    2.2711    0.1640    0.0000 C   0  0  0  0  0  0  0  0  0  0  0  0
    1.5566    0.5765    0.0000 C   0  0  0  0  0  0  0  0  0  0  0  0
    0.8422    0.1640    0.0000 F   0  0  0  0  0  0  0  0  0  0  0  0
    1.5566    1.4015    0.0000 C   0  0  0  0  0  0  0  0  0  0  0  0
    0.8422    1.8140    0.0000 O   0  0  0  0  0  0  0  0  0  0  0  0
    0.1277    1.4015    0.0000 C   0  0  0  0  0  0  0  0  0  0  0  0
    0.1277    0.5765    0.0000 N   0  0  0  0  0  0  0  0  0  0  0  0
   -0.5868    1.8140    0.0000 N   0  0  0  0  0  0  0  0  0  0  0  0
   -1.3013    1.4015    0.0000 C   0  0  0  0  0  0  0  0  0  0  0  0
   -2.0859    1.6565    0.0000 N   0  0  0  0  0  0  0  0  0  0  0  0
   -2.5708    0.9890    0.0000 N   0  0  0  0  0  0  0  0  0  0  0  0
   -2.0859    0.3216    0.0000 C   0  0  0  0  0  0  0  0  0  0  0  0
   -1.3013    0.5765    0.0000 C   0  0  0  0  0  0  0  0  0  0  0  0
   -0.5868    0.1640    0.0000 C   0  0  0  0  0  0  0  0  0  0  0  0
   -2.3408   -0.4630    0.0000 N   0  0  0  0  0  0  0  0  0  0  0  0
   -1.7888   -1.0761    0.0000 C   0  0  2  0  0  0  0  0  0  0  0  0
   -0.9818   -0.9046    0.0000 C   0  0  0  0  0  0  0  0  0  0  0  0
   -2.0437   -1.8607    0.0000 C   0  0  0  0  0  0  0  0  0  0  0  0
   -1.4917   -2.4738    0.0000 S   0  0  0  0  0  0  0  0  0  0  0  0
   -0.9397   -3.0869    0.0000 O   0  0  0  0  0  0  0  0  0  0  0  0
   -2.1048   -3.0259    0.0000 O   0  0  0  0  0  0  0  0  0  0  0  0
   -0.8786   -1.9218    0.0000 C   0  0  0  0  0  0  0  0  0  0  0  0
  2  1  1  0  0  0  0
  3  2  2  0  0  0  0
  2  5  1  0  0  0  0
  4  3  1  0  0  0  0
  8  4  2  0  0  0  0
  5  6  2  0  0  0  0
  6  7  1  0  0  0  0
  8  6  1  0  0  0  0
  8  9  1  0  0  0  0
 10  9  1  0  0  0  0
 10 11  2  0  0  0  0
 10 12  1  0  0  0  0
 18 11  1  0  0  0  0
 13 12  2  0  0  0  0
 13 14  1  0  0  0  0
 17 13  1  0  0  0  0
 14 15  1  0  0  0  0
 16 15  2  0  0  0  0
 17 16  1  0  0  0  0
 16 19  1  0  0  0  0
 18 17  2  0  0  0  0
 20 19  1  0  0  0  0
 20 21  1  6  0  0  0
 20 22  1  0  0  0  0
 22 23  1  0  0  0  0
 24 23  2  0  0  0  0
 25 23  2  0  0  0  0
 26 23  1  0  0  0  0
M  END