
  SciTegic09291413392D

 28 30  0  0  0  0            999 V2000
    4.0526  -26.9115    0.0000 C   0  0
    4.0526  -26.0902    0.0000 C   0  0
    4.7644  -25.6816    0.0000 C   0  0
    5.4763  -26.0902    0.0000 C   0  0
    5.4763  -26.9115    0.0000 C   0  0
    4.7644  -27.3242    0.0000 N   0  0
    3.3408  -27.3242    0.0000 N   0  0
    4.7644  -24.8603    0.0000 C   0  0
    6.1840  -27.3242    0.0000 C   0  0
    6.8958  -26.9115    0.0000 C   0  0
    6.8958  -26.0902    0.0000 C   0  0
    7.6076  -27.3242    0.0000 C   0  0
    8.3195  -26.9115    0.0000 C   0  0
    9.0313  -27.3242    0.0000 C   0  0
    9.0313  -28.1455    0.0000 C   0  0
    8.3195  -28.5541    0.0000 N   0  0
    7.6076  -28.1455    0.0000 C   0  0
    9.7431  -26.9115    0.0000 C   0  0
   10.4550  -27.3242    0.0000 C   0  0
   11.1627  -26.9115    0.0000 C   0  0
   11.1627  -26.0902    0.0000 C   0  0
   11.8745  -25.6816    0.0000 C   0  0
   12.5863  -26.0902    0.0000 C   0  0
   12.5863  -26.9115    0.0000 C   0  0
   11.8745  -27.3242    0.0000 N   0  0
   11.8745  -24.8603    0.0000 C   0  0
   13.2982  -27.3242    0.0000 N   0  0
    6.1840  -25.6816    0.0000 N   0  0
  1  2  1  0
  2  3  2  0
  3  4  1  0
  4  5  2  0
  5  6  1  0
  1  6  2  0
  1  7  1  0
  3  8  1  0
  9 10  1  0
 10 11  1  0
 12 13  1  0
 13 14  2  0
 14 15  1  0
 15 16  2  0
 16 17  1  0
 12 17  2  0
 18 19  1  0
 20 21  1  0
 21 22  2  0
 22 23  1  0
 23 24  2  0
 24 25  1  0
 20 25  2  0
 22 26  1  0
 24 27  1  0
 19 20  1  0
 14 18  1  0
 10 12  1  0
 11 28  1  0
  5  9  1  0
M  END