
          08180812492D 1   1.00000     0.00000     0

 56 60  0     1  0            999 V2000
   12.4589    0.6249    0.0000 C   0  0  2  0  0  0           0  0  0
   11.7443    0.2133    0.0000 N   0  0  0  0  0  0           0  0  0
   13.1748    0.2156    0.0000 C   0  0  0  0  0  0           0  0  0
   13.1761   -0.6097    0.0000 O   0  0  0  0  0  0           0  0  0
   13.8894    0.6272    0.0000 N   0  0  3  0  0  0           0  0  0
   14.6005    0.2156    0.0000 C   0  0  1  0  0  0           0  0  0
   13.8815    1.4512    0.0000 C   0  0  0  0  0  0           0  0  0
   14.6002    1.8652    0.0000 C   0  0  0  0  0  0           0  0  0
   16.0271    2.6855    0.0000 C   0  0  0  0  0  0           0  0  0
   15.3093    3.0951    0.0000 C   0  0  0  0  0  0           0  0  0
   14.5993    2.6846    0.0000 C   0  0  0  0  0  0           0  0  0
   14.5995   -0.6096    0.0000 C   0  0  0  0  0  0           0  0  0
   13.8838   -1.0235    0.0000 O   0  0  0  0  0  0           0  0  0
   15.3143   -1.0251    0.0000 N   0  0  0  0  0  0           0  0  0
   12.4576    1.4502    0.0000 C   0  0  0  0  0  0           0  0  0
   11.7417    1.8638    0.0000 C   0  0  0  0  0  0           0  0  0
   11.7414    2.6872    0.0000 C   0  0  0  0  0  0           0  0  0
   11.0264    3.0965    0.0000 C   0  0  0  0  0  0           0  0  0
   10.3149    2.6848    0.0000 C   0  0  0  0  0  0           0  0  0
   10.3189    1.8553    0.0000 C   0  0  0  0  0  0           0  0  0
   11.0304    1.4455    0.0000 C   0  0  0  0  0  0           0  0  0
   16.0300   -0.6113    0.0000 C   0  0  2  0  0  0           0  0  0
   16.7406   -1.0268    0.0000 C   0  0  0  0  0  0           0  0  0
   17.4563   -0.6129    0.0000 N   0  0  0  0  0  0           0  0  0
   16.7396   -1.8520    0.0000 O   0  0  0  0  0  0           0  0  0
   16.0295    0.2131    0.0000 C   0  0  0  0  0  0           0  0  0
   16.7425    0.6237    0.0000 C   0  0  0  0  0  0           0  0  0
   16.0301    1.8643    0.0000 C   0  0  0  0  0  0           0  0  0
   15.3121    1.4445    0.0000 C   0  0  0  0  0  0           0  0  0
   15.3158    0.6208    0.0000 C   0  0  0  0  0  0           0  0  0
   17.4556    0.2089    0.0000 C   0  0  0  0  0  0           0  0  0
   18.1723    0.6189    0.0000 C   0  0  0  0  0  0           0  0  0
   18.1737    1.4466    0.0000 C   0  0  0  0  0  0           0  0  0
   17.4525    1.8629    0.0000 C   0  0  0  0  0  0           0  0  0
   16.7386    1.4464    0.0000 C   0  0  0  0  0  0           0  0  0
   18.1710   -1.0284    0.0000 C   0  0  2  0  0  0           0  0  0
   18.8869   -0.6146    0.0000 C   0  0  0  0  0  0           0  0  0
   19.6016   -1.0301    0.0000 O   0  0  0  0  0  0           0  0  0
   18.8877    0.2107    0.0000 O   0  0  0  0  0  0           0  0  0
   18.1701   -1.8537    0.0000 C   0  0  0  0  0  0           0  0  0
   18.8849   -2.2651    0.0000 C   0  0  0  0  0  0           0  0  0
   18.8840   -3.0903    0.0000 C   0  0  0  0  0  0           0  0  0
   19.5987   -3.5059    0.0000 C   0  0  0  0  0  0           0  0  0
   19.5978   -4.3312    0.0000 N   0  0  0  0  0  0           0  0  0
   20.3125   -4.7425    0.0000 C   0  0  0  0  0  0           0  0  0
   20.3116   -5.5678    0.0000 O   0  0  0  0  0  0           0  0  0
   21.0283   -4.3328    0.0000 C   0  0  0  0  0  0           0  0  0
   21.7403   -4.7444    0.0000 C   0  0  0  0  0  0           0  0  0
   22.4514   -4.3353    0.0000 C   0  0  0  0  0  0           0  0  0
   22.4528   -3.5093    0.0000 C   0  0  0  0  0  0           0  0  0
   21.7371   -3.0938    0.0000 C   0  0  0  0  0  0           0  0  0
   21.0249   -3.5094    0.0000 C   0  0  0  0  0  0           0  0  0
   23.1680   -3.0944    0.0000 F   0  0  0  0  0  0           0  0  0
    9.5985    3.0933    0.0000 O   0  0  0  0  0  0           0  0  0
   11.0393    0.6203    0.0000 C   0  0  0  0  0  0           0  0  0
   12.4563    3.0983    0.0000 C   0  0  0  0  0  0           0  0  0
  6 12  1  6     0  0
 26 27  1  0     0  0
  1  2  1  0     0  0
 12 13  2  0     0  0
 28 29  1  0     0  0
  5  7  1  0     0  0
 29 30  1  0     0  0
 12 14  1  0     0  0
 27 31  2  0     0  0
  6 30  1  0     0  0
 31 32  1  0     0  0
  1 15  1  1     0  0
 32 33  2  0     0  0
  8  7  1  0     0  0
 33 34  1  0     0  0
 15 16  1  0     0  0
 34 35  2  0     0  0
 35 27  1  0     0  0
  3  4  2  0     0  0
 24 36  1  0     0  0
 16 17  2  0     0  0
 36 37  1  0     0  0
  8 29  2  0     0  0
 37 38  1  0     0  0
 17 18  1  0     0  0
 37 39  2  0     0  0
 36 40  1  6     0  0
 18 19  2  0     0  0
 40 41  1  0     0  0
 28  9  2  0     0  0
 41 42  1  0     0  0
 19 20  1  0     0  0
 42 43  1  0     0  0
  3  5  1  0     0  0
 43 44  1  0     0  0
 20 21  2  0     0  0
 44 45  1  0     0  0
 21 16  1  0     0  0
 45 46  2  0     0  0
  9 10  1  0     0  0
 45 47  1  0     0  0
 14 22  1  0     0  0
 47 48  2  0     0  0
  5  6  1  0     0  0
 48 49  1  0     0  0
 22 23  1  0     0  0
 49 50  2  0     0  0
 22 26  1  1     0  0
 50 51  1  0     0  0
 10 11  2  0     0  0
 51 52  2  0     0  0
 52 47  1  0     0  0
 23 24  1  0     0  0
 50 53  1  0     0  0
 11  8  1  0     0  0
 19 54  1  0     0  0
 23 25  2  0     0  0
 21 55  1  0     0  0
  1  3  1  0     0  0
 17 56  1  0     0  0
M  END