
  SciTegic10301317112D

 29 29  0  0  0  0            999 V2000
    2.9542   -5.7750    0.0000 S   0  0
    6.2417   -5.7625    0.0000 C   0  0
    3.7750   -5.7750    0.0000 C   0  0
   11.7667   -9.1250    0.0000 C   0  0
   10.5167   -8.4167    0.0000 N   0  0
   10.0375   -7.7542    0.0000 C   0  0
    6.6625   -6.4750    0.0000 N   0  0
    2.9500   -6.6000    0.0000 O   0  0
    2.9542   -4.9500    0.0000 O   0  0
    7.9042   -7.1792    0.0000 C   0  0
   11.3500   -8.4125    0.0000 C   0  0  1  0  0  0
    5.4167   -5.7667    0.0000 C   0  0
    2.1250   -5.7667    0.0000 N   0  0
    8.7292   -7.1750    0.0000 N   0  0
    6.6542   -5.0417    0.0000 O   0  0
   11.3542   -9.8417    0.0000 O   0  0
   10.3667   -7.0000    0.0000 O   0  0
    7.4917   -7.8917    0.0000 O   0  0
    4.1792   -5.0625    0.0000 C   0  0
    4.1917   -6.4875    0.0000 C   0  0
    5.0125   -6.4792    0.0000 C   0  0
    5.0000   -5.0542    0.0000 C   0  0
    7.4875   -6.4667    0.0000 C   0  0
    9.2167   -7.8417    0.0000 C   0  0
   12.5917   -9.1167    0.0000 O   0  0
   11.7542   -7.6917    0.0000 C   0  0
   12.5792   -7.6917    0.0000 C   0  0
   12.9917   -6.9750    0.0000 C   0  0
   13.8167   -6.9667    0.0000 C   0  0
  2 12  1  0
  3  1  1  0
  4 11  1  0
  5  6  1  0
  6 24  1  0
  7  2  1  0
  8  1  2  0
  9  1  2  0
 10 23  1  0
 11  5  1  0
 12 21  2  0
 13  1  1  0
 14 10  1  0
 15  2  2  0
 16  4  2  0
 17  6  2  0
 18 10  2  0
 19  3  1  0
 20  3  2  0
 21 20  1  0
 22 19  2  0
 23  7  1  0
 24 14  1  0
 25  4  1  0
 11 26  1  1
 27 26  1  0
 28 27  1  0
 29 28  1  0
 12 22  1  0
M  END