
          11280715142D 1   1.00000     0.00000     0

 42 43  0     0  0            999 V2000
    4.5542   -7.8500    0.0000 C   0  0  0  0  0  0           0  0  0
    4.5542   -8.6750    0.0000 C   0  0  0  0  0  0           0  0  0
    5.2542   -7.4292    0.0000 C   0  0  0  0  0  0           0  0  0
    2.4042   -7.4417    0.0000 C   0  0  0  0  0  0           0  0  0
    3.1250   -7.8542    0.0000 C   0  0  0  0  0  0           0  0  0
    1.6917   -7.8625    0.0000 C   0  0  0  0  0  0           0  0  0
    3.8375   -7.4417    0.0000 C   0  0  3  0  0  0           0  0  0
   10.2542   -5.3542    0.0000 C   0  0  0  0  0  0           0  0  0
    5.2667   -9.0792    0.0000 C   0  0  0  0  0  0           0  0  0
    5.9750   -7.8375    0.0000 C   0  0  0  0  0  0           0  0  0
    8.1250   -9.0667    0.0000 C   0  0  0  0  0  0           0  0  0
    1.6917   -8.6875    0.0000 C   0  0  0  0  0  0           0  0  0
   10.9667   -4.9417    0.0000 N   0  0  3  0  0  0           0  0  0
    5.9792   -8.6667    0.0000 C   0  0  0  0  0  0           0  0  0
    3.1250   -8.6875    0.0000 C   0  0  0  0  0  0           0  0  0
   10.2625   -6.1792    0.0000 O   0  0  0  0  0  0           0  0  0
    8.8375   -8.6542    0.0000 O   0  0  0  0  0  0           0  0  0
    2.4042   -9.1000    0.0000 C   0  0  0  0  0  0           0  0  0
    6.7000   -9.0792    0.0000 O   0  0  0  0  0  0           0  0  0
    5.2542   -4.9625    0.0000 C   0  0  0  0  0  0           0  0  0
    4.5417   -5.3750    0.0000 C   0  0  0  0  0  0           0  0  0
    0.9792   -7.4500    0.0000 C   0  0  3  0  0  0           0  0  0
    7.4125   -8.6625    0.0000 C   0  0  0  0  0  0           0  0  0
    8.1292   -9.8917    0.0000 O   0  0  0  0  0  0           0  0  0
    0.9792   -9.1000    0.0000 O   0  0  0  0  0  0           0  0  0
    5.2625   -6.6167    0.0000 C   0  0  0  0  0  0           0  0  0
    3.8375   -9.0875    0.0000 C   0  0  0  0  0  0           0  0  0
    9.5417   -4.9417    0.0000 C   0  0  0  0  0  0           0  0  0
    3.8292   -6.6167    0.0000 C   0  0  0  0  0  0           0  0  0
   10.9667   -4.1167    0.0000 C   0  0  0  0  0  0           0  0  0
   11.6875   -5.3500    0.0000 C   0  0  0  0  0  0           0  0  0
    4.5417   -6.2000    0.0000 C   0  0  0  0  0  0           0  0  0
    5.9667   -5.3667    0.0000 C   0  0  0  0  0  0           0  0  0
    0.2667   -7.8625    0.0000 C   0  0  0  0  0  0           0  0  0
    0.9792   -6.6250    0.0000 C   0  0  0  0  0  0           0  0  0
    8.8292   -5.3542    0.0000 C   0  0  0  0  0  0           0  0  0
   11.6792   -3.7000    0.0000 C   0  0  0  0  0  0           0  0  0
    6.6792   -4.9542    0.0000 C   0  0  0  0  0  0           0  0  0
   11.6792   -2.8750    0.0000 C   0  0  0  0  0  0           0  0  0
    8.1125   -4.9500    0.0000 C   0  0  0  0  0  0           0  0  0
    7.4000   -5.3667    0.0000 C   0  0  0  0  0  0           0  0  0
   10.9542   -2.4667    0.0000 C   0  0  0  0  0  0           0  0  0
  2  1  2  0     0  0
  3  1  1  0     0  0
  4  5  2  0     0  0
  5  7  1  0     0  0
  6  4  1  0     0  0
  7  1  1  0     0  0
  8 28  1  0     0  0
  9  2  1  0     0  0
 10  3  2  0     0  0
 11 23  1  0     0  0
 12 18  1  0     0  0
 13  8  1  0     0  0
 14 10  1  0     0  0
 15  5  1  0     0  0
 16  8  2  0     0  0
 17 11  2  0     0  0
 18 15  2  0     0  0
 19 14  1  0     0  0
 20 21  2  0     0  0
 21 32  1  0     0  0
 22  6  1  0     0  0
 23 19  1  0     0  0
 24 11  1  0     0  0
 25 12  1  0     0  0
 26  3  1  0     0  0
 27  2  1  0     0  0
 28 36  1  0     0  0
  7 29  1  0     0  0
 30 13  1  0     0  0
 31 13  1  0     0  0
 32 29  1  0     0  0
 20 33  1  0     0  0
 34 22  1  0     0  0
 35 22  1  0     0  0
 36 40  1  0     0  0
 37 30  1  0     0  0
 38 33  1  0     0  0
 39 37  1  0     0  0
 40 41  1  0     0  0
 41 38  1  0     0  0
 42 39  1  0     0  0
 14  9  2  0     0  0
 12  6  2  0     0  0
M  END