
  SciTegic02231516322D

 28 27  0  0  0  0            999 V2000
    3.2610  -10.0498    0.0000 C   0  0
    3.2599  -10.8772    0.0000 C   0  0
    3.9747  -11.2900    0.0000 C   0  0
    4.6912  -10.8767    0.0000 C   0  0
    4.6882  -10.0462    0.0000 C   0  0
    3.9729   -9.6371    0.0000 C   0  0
    5.4062  -11.2881    0.0000 O   0  0
    5.4012   -9.6311    0.0000 O   0  0
    6.1171  -10.0408    0.0000 C   0  0
    6.8301   -9.6256    0.0000 C   0  0
    7.5460  -10.0355    0.0000 C   0  0
    6.8269   -8.8007    0.0000 O   0  0
    6.1201  -10.8745    0.0000 C   0  0
    6.8351  -11.2859    0.0000 C   0  0
    6.8364  -12.1109    0.0000 O   0  0
    7.5492  -10.8605    0.0000 C   0  0
    8.2590   -9.6203    0.0000 N   0  0
    8.2693  -11.2631    0.0000 N   0  0
    8.2806  -12.0880    0.0000 C   0  0
    9.0006  -12.4907    0.0000 C   0  0
    7.5719  -12.5103    0.0000 C   0  0
    8.9751  -10.0300    0.0000 C   0  0
    9.6879   -9.6149    0.0000 C   0  0
    8.9781  -10.8550    0.0000 C   0  0
    3.9745  -12.1150    0.0000 C   0  0
    3.2599  -12.5274    0.0000 C   0  0
    4.6888  -12.5277    0.0000 C   0  0
   11.3101  -11.7565    0.0000 Cl  0  0
  1  2  2  0
  2  3  1  0
  3  4  2  0
  4  5  1  0
  5  6  2  0
  6  1  1  0
  4  7  1  0
  5  8  1  0
  8  9  1  0
  9 10  1  0
 10 11  1  0
 10 12  1  0
  7 13  1  0
 13 14  1  0
 14 16  1  0
 14 15  1  0
 11 17  1  0
 16 18  1  0
 18 19  1  0
 19 20  1  0
 19 21  1  0
 17 22  1  0
 22 23  1  0
 22 24  1  0
  3 25  1  0
 25 26  1  0
 25 27  1  0
M  END