
          11280714452D 1   1.00000     0.00000     0

 27 29  0     0  0            999 V2000
   -0.0833   -3.7500    0.0000 C   0  0  0  0  0  0           0  0  0
    0.3167   -3.0250    0.0000 N   0  0  0  0  0  0           0  0  0
   -0.9958   -2.7792    0.0000 N   0  0  0  0  0  0           0  0  0
   -0.2583   -2.4250    0.0000 C   0  0  0  0  0  0           0  0  0
   -0.8958   -3.6000    0.0000 C   0  0  0  0  0  0           0  0  0
    0.2750   -4.4917    0.0000 C   0  0  0  0  0  0           0  0  0
    1.0792   -4.6500    0.0000 S   0  0  0  0  0  0           0  0  0
   -0.1208   -5.2167    0.0000 C   0  0  0  0  0  0           0  0  0
    1.1917   -5.4667    0.0000 C   0  0  0  0  0  0           0  0  0
    5.5542   -0.0625    0.0000 N   0  0  0  0  0  0           0  0  0
    0.4417   -5.8167    0.0000 C   0  0  0  0  0  0           0  0  0
    6.2667   -0.4750    0.0000 C   0  0  3  0  0  0           0  0  0
   -0.1000   -1.6167    0.0000 C   0  0  0  0  0  0           0  0  0
    2.7000   -0.0625    0.0000 O   0  0  0  0  0  0           0  0  0
    4.1292   -0.0625    0.0000 C   0  0  3  0  0  0           0  0  0
    1.9792   -0.4750    0.0000 C   0  0  0  0  0  0           0  0  0
    4.8417   -0.4750    0.0000 C   0  0  0  0  0  0           0  0  0
    0.5542   -1.3000    0.0000 C   0  0  0  0  0  0           0  0  0
    3.4125   -0.4750    0.0000 C   0  0  0  0  0  0           0  0  0
    1.9792   -1.3042    0.0000 C   0  0  0  0  0  0           0  0  0
    1.2667   -0.0625    0.0000 C   0  0  0  0  0  0           0  0  0
    1.2667   -1.7125    0.0000 C   0  0  0  0  0  0           0  0  0
    0.5542   -0.4667    0.0000 C   0  0  0  0  0  0           0  0  0
    4.1292    0.7625    0.0000 O   0  0  0  0  0  0           0  0  0
    6.2667   -1.3000    0.0000 C   0  0  0  0  0  0           0  0  0
    6.9792   -0.8875    0.0000 C   0  0  0  0  0  0           0  0  0
    6.9875   -0.0667    0.0000 C   0  0  0  0  0  0           0  0  0
  2  1  1  0     0  0
  3  5  1  0     0  0
  4  2  2  0     0  0
  5  1  2  0     0  0
  6  1  1  0     0  0
  7  6  1  0     0  0
  8  6  2  0     0  0
  9  7  1  0     0  0
 10 17  1  0     0  0
 11  8  1  0     0  0
 12 10  1  0     0  0
 13  4  1  0     0  0
 14 16  1  0     0  0
 15 19  1  0     0  0
 16 21  2  0     0  0
 17 15  1  0     0  0
 18 13  1  0     0  0
 19 14  1  0     0  0
 20 22  2  0     0  0
 21 23  1  0     0  0
 22 18  1  0     0  0
 23 18  2  0     0  0
 24 15  1  0     0  0
 25 12  1  0     0  0
 26 12  1  0     0  0
 27 12  1  0     0  0
  4  3  1  0     0  0
 11  9  2  0     0  0
 20 16  1  0     0  0
M  END