
  CDK    9/16/09,9:21

 21 23  0  0  0  0  0  0  0  0999 V2000
   10.9168   -7.6493    0.0000 C   0  0  0  0  0  0  0  0  0  0  0  0
   10.8977   -8.4735    0.0000 C   0  0  0  0  0  0  0  0  0  0  0  0
   10.1771   -8.8701    0.0000 C   0  0  0  0  0  0  0  0  0  0  0  0
    9.4715   -8.4426    0.0000 C   0  0  0  0  0  0  0  0  0  0  0  0
    8.7467   -8.8393    0.0000 C   0  0  0  0  0  0  0  0  0  0  0  0
    8.0411   -8.4117    0.0000 C   0  0  0  0  0  0  0  0  0  0  0  0
    8.0602   -7.5875    0.0000 C   0  0  0  0  0  0  0  0  0  0  0  0
    8.7850   -7.1908    0.0000 C   0  0  0  0  0  0  0  0  0  0  0  0
    9.4865   -7.6184    0.0000 C   0  0  0  0  0  0  0  0  0  0  0  0
   10.2111   -7.2217    0.0000 O   0  0  0  0  0  0  0  0  0  0  0  0
   11.6033   -8.9010    0.0000 O   0  0  0  0  0  0  0  0  0  0  0  0
    8.7276   -9.6635    0.0000 O   0  0  0  0  0  0  0  0  0  0  0  0
    7.3547   -7.1600    0.0000 O   0  0  0  0  0  0  0  0  0  0  0  0
   11.6374   -7.2526    0.0000 C   0  0  0  0  0  0  0  0  0  0  0  0
   11.6564   -6.4284    0.0000 C   0  0  0  0  0  0  0  0  0  0  0  0
   12.3812   -6.0318    0.0000 C   0  0  0  0  0  0  0  0  0  0  0  0
   13.0868   -6.4593    0.0000 C   0  0  0  0  0  0  0  0  0  0  0  0
   13.0677   -7.2835    0.0000 C   0  0  0  0  0  0  0  0  0  0  0  0
   12.3429   -7.6802    0.0000 C   0  0  0  0  0  0  0  0  0  0  0  0
   13.8073   -6.0626    0.0000 O   0  0  0  0  0  0  0  0  0  0  0  0
   12.4003   -5.2075    0.0000 O   0  0  0  0  0  0  0  0  0  0  0  0
  1  2  1  0  0  0  0 
  2  3  1  0  0  0  0 
  3  4  1  0  0  0  0 
  4  5  1  0  0  0  0 
  5  6  2  0  0  0  0 
  6  7  1  0  0  0  0 
  7  8  2  0  0  0  0 
  8  9  1  0  0  0  0 
  4  9  2  0  0  0  0 
  9 10  1  0  0  0  0 
  1 10  1  0  0  0  0 
  2 11  1  6  0  0  0 
  5 12  1  0  0  0  0 
  7 13  1  0  0  0  0 
 14 15  1  0  0  0  0 
 15 16  2  0  0  0  0 
 16 17  1  0  0  0  0 
 17 18  2  0  0  0  0 
 18 19  1  0  0  0  0 
 14 19  2  0  0  0  0 
 17 20  1  0  0  0  0 
 16 21  1  0  0  0  0 
  1 14  1  1  0  0  0 
M  END