
  SciTegic01161211252D

 21 24  0  0  0  0            999 V2000
   18.1105   -0.9687    0.0000 N   0  0
   17.8768   -1.7549    0.0000 C   0  0
   18.4420   -2.3482    0.0000 C   0  0
   19.2426   -2.1567    0.0000 N   0  0
   19.4751   -1.3662    0.0000 C   0  0
   18.9069   -0.7674    0.0000 C   0  0
   19.8094   -2.7532    0.0000 C   0  0
   14.1081    0.0084    0.0000 C   0  0
   14.1069   -0.8169    0.0000 C   0  0
   14.8200   -1.2287    0.0000 C   0  0
   14.8182    0.4200    0.0000 C   0  0
   15.5317    0.0120    0.0000 C   0  0
   15.5366   -0.8169    0.0000 C   0  0
   16.3264   -1.0685    0.0000 O   0  0
   16.3185    0.2727    0.0000 C   0  0
   16.8075   -0.3942    0.0000 C   0  0
   17.6275   -0.3034    0.0000 C   0  0
   17.9596    0.4535    0.0000 N   0  0
   17.4656    1.1206    0.0000 C   0  0
   16.6473    1.0265    0.0000 N   0  0
   13.3954    0.4196    0.0000 Cl  0  0
  3  4  1  0
 12 11  2  0
 11  8  1  0
 12 13  1  0
  4  5  1  0
  5  6  1  0
  1  2  1  0
 13 14  1  0
 14 16  1  0
 15 12  1  0
  4  7  1  0
 15 16  2  0
  1  6  1  0
 16 17  1  0
  8  9  2  0
 17 18  2  0
  2  3  1  0
 18 19  1  0
  9 10  1  0
 19 20  2  0
 20 15  1  0
 17  1  1  0
 10 13  2  0
  8 21  1  0
M  END