
  SciTegic12201609192D

 15 15  0  0  0  0            999 V2000
    2.5973   -1.5031    0.0000 O   0  0
    1.2990   -0.7500    0.0000 C   0  0  2  0  0  0
    1.2990    0.7500    0.0000 C   0  0
    2.3383    1.3500    0.0000 O   0  0
    0.0000    1.5000    0.0000 C   0  0
    0.0000    2.7000    0.0000 O   0  0
   -1.2990    0.7500    0.0000 C   0  0
   -2.3383    1.3500    0.0000 O   0  0
   -1.2990   -0.7500    0.0000 C   0  0
    0.0000   -1.5000    0.0000 O   0  0
   -2.5972   -1.5031    0.0000 C   0  0
   -3.6375   -0.9049    0.0000 O   0  0
    2.5956   -2.7031    0.0000 C   0  0
   -2.5951   -3.0039    0.0000 C   0  0
   -3.6331   -3.6061    0.0000 O   0  0
  2  1  1  1
  2  3  1  0
  3  4  1  0
  3  5  1  0
  5  6  1  0
  5  7  1  0
  7  8  1  0
  7  9  1  0
  9 10  1  0
  9 11  1  0
 11 12  1  0
  2 10  1  0
  1 13  1  0
 11 14  1  0
 14 15  1  0
M  END