
  Mrv0541 05211314572D          

 38 42  0  0  0  0            999 V2000
   -0.9257   -3.6154    0.0000 C   0  0  0  0  0  0  0  0  0  0  0  0
   -0.2112   -3.2029    0.0000 C   0  0  0  0  0  0  0  0  0  0  0  0
    0.5032   -3.6154    0.0000 C   0  0  0  0  0  0  0  0  0  0  0  0
    1.2177   -3.2029    0.0000 N   0  0  0  0  0  0  0  0  0  0  0  0
    0.5032   -4.4404    0.0000 O   0  0  0  0  0  0  0  0  0  0  0  0
    1.2177   -2.3779    0.0000 C   0  0  0  0  0  0  0  0  0  0  0  0
    1.9322   -1.9654    0.0000 C   0  0  0  0  0  0  0  0  0  0  0  0
    2.6467   -2.3779    0.0000 N   0  0  0  0  0  0  0  0  0  0  0  0
    2.6467   -3.2029    0.0000 C   0  0  0  0  0  0  0  0  0  0  0  0
    1.9322   -3.6154    0.0000 C   0  0  0  0  0  0  0  0  0  0  0  0
    3.3611   -1.9654    0.0000 C   0  0  0  0  0  0  0  0  0  0  0  0
    3.3611   -1.1404    0.0000 C   0  0  0  0  0  0  0  0  0  0  0  0
    4.0756   -0.7279    0.0000 C   0  0  0  0  0  0  0  0  0  0  0  0
    4.7901   -1.1404    0.0000 C   0  0  0  0  0  0  0  0  0  0  0  0
    4.7901   -1.9654    0.0000 C   0  0  0  0  0  0  0  0  0  0  0  0
    4.0756   -2.3779    0.0000 C   0  0  0  0  0  0  0  0  0  0  0  0
    5.5045   -0.7279    0.0000 N   0  3  0  0  0  0  0  0  0  0  0  0
    6.2190   -1.1404    0.0000 O   0  0  0  0  0  0  0  0  0  0  0  0
    5.5045    0.0971    0.0000 O   0  5  0  0  0  0  0  0  0  0  0  0
   -1.6402   -3.2029    0.0000 N   0  0  0  0  0  0  0  0  0  0  0  0
   -1.6402   -2.3779    0.0000 C   0  0  0  0  0  0  0  0  0  0  0  0
   -2.3546   -3.6154    0.0000 C   0  0  0  0  0  0  0  0  0  0  0  0
   -3.0691   -3.2029    0.0000 C   0  0  0  0  0  0  0  0  0  0  0  0
   -3.7836   -3.6154    0.0000 C   0  0  0  0  0  0  0  0  0  0  0  0
   -5.1425   -4.8763    0.0000 C   0  0  0  0  0  0  0  0  0  0  0  0
   -5.5550   -4.1618    0.0000 C   0  0  0  0  0  0  0  0  0  0  0  0
   -5.2536   -3.3938    0.0000 C   0  0  0  0  0  0  0  0  0  0  0  0
   -4.4652   -3.1506    0.0000 C   0  0  0  0  0  0  0  0  0  0  0  0
   -4.2817   -2.3463    0.0000 C   0  0  0  0  0  0  0  0  0  0  0  0
   -4.8864   -1.7852    0.0000 C   0  0  0  0  0  0  0  0  0  0  0  0
   -5.6748   -2.0284    0.0000 C   0  0  0  0  0  0  0  0  0  0  0  0
   -5.8583   -2.8327    0.0000 C   0  0  0  0  0  0  0  0  0  0  0  0
   -3.7219   -4.4381    0.0000 C   0  0  0  0  0  0  0  0  0  0  0  0
   -4.3267   -4.9992    0.0000 C   0  0  0  0  0  0  0  0  0  0  0  0
   -4.1431   -5.8035    0.0000 C   0  0  0  0  0  0  0  0  0  0  0  0
   -3.3548   -6.0467    0.0000 C   0  0  0  0  0  0  0  0  0  0  0  0
   -2.7500   -5.4856    0.0000 C   0  0  0  0  0  0  0  0  0  0  0  0
   -2.9336   -4.6813    0.0000 C   0  0  0  0  0  0  0  0  0  0  0  0
 17 19  1  0  0  0  0
 14 17  1  0  0  0  0
  8  9  1  0  0  0  0
  1 20  1  0  0  0  0
  9 10  1  0  0  0  0
 20 21  1  0  0  0  0
  4  6  1  0  0  0  0
 20 22  1  0  0  0  0
  8 11  1  0  0  0  0
 22 23  1  0  0  0  0
  2  3  1  0  0  0  0
 23 24  1  0  0  0  0
 24 33  1  0  0  0  0
 24 28  1  0  0  0  0
 11 12  2  0  0  0  0
 34 25  1  0  0  0  0
  1  2  1  0  0  0  0
 25 26  1  0  0  0  0
 27 26  1  0  0  0  0
 27 28  2  0  0  0  0
 12 13  1  0  0  0  0
  3  4  1  0  0  0  0
 13 14  2  0  0  0  0
 14 15  1  0  0  0  0
  3  5  2  0  0  0  0
 27 32  1  0  0  0  0
 28 29  1  0  0  0  0
 29 30  2  0  0  0  0
 30 31  1  0  0  0  0
 31 32  2  0  0  0  0
 33 34  2  0  0  0  0
 15 16  2  0  0  0  0
 16 11  1  0  0  0  0
  4 10  1  0  0  0  0
  6  7  1  0  0  0  0
  7  8  1  0  0  0  0
 17 18  2  0  0  0  0
 33 38  1  0  0  0  0
 34 35  1  0  0  0  0
 35 36  2  0  0  0  0
 36 37  1  0  0  0  0
 37 38  2  0  0  0  0
M  CHG  2  17   1  19  -1
M  END