
  SciTegic12231509382D

 13 12  0  0  0  0            999 V2000
    2.0649   -9.0412    0.0000 C   0  0
    2.7782   -7.8041    0.0000 N   0  0
    2.0649   -8.2150    0.0000 C   0  0  1  0  0  0
    1.3497   -7.8041    0.0000 C   0  0
    0.6343   -8.2150    0.0000 C   0  0
    0.6343   -9.0412    0.0000 C   0  0
   -0.0788   -9.4522    0.0000 N   0  0
   -0.7942   -9.0412    0.0000 C   0  0
   -0.7942   -8.2150    0.0000 N   0  0
   -1.5094   -9.4522    0.0000 N   0  0
    2.7782   -9.4522    0.0000 O   0  0
    1.3497   -9.4522    0.0000 O   0  0
   -2.2531   -9.0978    0.0000 O   0  0
  3  4  1  0
  4  5  1  0
  5  6  1  0
  6  7  1  0
  7  8  1  0
  8  9  2  0
  8 10  1  0
  1 11  2  0
  1 12  1  0
 10 13  1  0
  3  2  1  6
  1  3  1  0
M  END