
  SciTegic01111613442D

 25 26  0  0  0  0            999 V2000
   -3.8933    3.7570    0.0000 C   0  0
   -2.5951    3.0039    0.0000 C   0  0
    2.5973   -1.5031    0.0000 C   0  0
   -2.5973    1.5031    0.0000 O   0  0
   -3.8912    5.2578    0.0000 O   0  0
    1.2990   -0.7500    0.0000 C   0  0
    2.5951   -3.0039    0.0000 C   0  0
   -4.9336    3.1588    0.0000 O   0  0
    3.6375   -0.9049    0.0000 O   0  0
    0.0000   -1.5000    0.0000 C   0  0
    3.8915   -3.7585    0.0000 C   0  0
    1.2935   -3.7495    0.0000 C   0  0
    1.2990    0.7500    0.0000 C   0  0
   -1.2990    0.7500    0.0000 C   0  0
    2.5847   -6.0040    0.0000 C   0  0
   -1.2990   -0.7500    0.0000 C   0  0
    0.0000    1.5000    0.0000 C   0  0
    3.8864   -5.2585    0.0000 C   0  0
    1.2883   -5.2495    0.0000 C   0  0
    2.5806   -7.2040    0.0000 Cl  0  0
   -1.5568    2.4023    0.0000 C   0  0
   -1.5549    3.6021    0.0000 C   0  0
   -5.1894    6.0109    0.0000 C   0  0
   -5.1877    7.2109    0.0000 C   0  0
   -6.2297    5.4127    0.0000 C   0  0
  2  1  1  0
  3  6  1  0
  4  2  1  0
  5  1  1  0
  6 13  1  0
  7  3  1  0
  8  1  2  0
  9  3  2  0
 10 16  1  0
 11  7  2  0
 12  7  1  0
 13 17  2  0
 14  4  1  0
 15 19  1  0
 16 14  2  0
 17 14  1  0
 18 11  1  0
 19 12  2  0
 20 15  1  0
 21  2  1  0
 22  2  1  0
 23  5  1  0
 24 23  1  0
 25 23  1  0
 10  6  2  0
 18 15  2  0
M  END