
  SciTegic01161211262D

 29 31  0  0  0  0            999 V2000
   12.4601  -20.6081    0.0000 C   0  0
   12.4590  -21.4352    0.0000 C   0  0
   13.1735  -21.8479    0.0000 C   0  0
   13.8896  -21.4347    0.0000 C   0  0
   13.8868  -20.6045    0.0000 C   0  0
   13.1717  -20.1956    0.0000 C   0  0
   11.7445  -21.8469    0.0000 N   0  0
   11.0306  -21.4341    0.0000 C   0  0
   10.3161  -21.8458    0.0000 N   0  0
   11.0313  -20.6094    0.0000 O   0  0
    9.6023  -21.4325    0.0000 C   0  0
    9.3286  -20.6534    0.0000 C   0  0
    8.5031  -20.6691    0.0000 C   0  0
    8.2643  -21.4596    0.0000 O   0  0
    8.9429  -21.9298    0.0000 N   0  0
    8.0050  -20.0117    0.0000 C   0  0
    8.3804  -19.2775    0.0000 C   0  0
    7.1814  -20.0538    0.0000 C   0  0
    7.4792  -19.3664    0.0000 C   0  0
   14.5994  -20.1895    0.0000 N   0  0
   15.3151  -20.5991    0.0000 C   0  0
   16.0277  -20.1841    0.0000 C   0  0
   15.3104  -21.4204    0.0000 O   0  0
   16.7418  -20.5972    0.0000 C   0  0
   17.4540  -20.1829    0.0000 C   0  0
   17.4513  -19.3573    0.0000 C   0  0
   16.7306  -18.9479    0.0000 C   0  0
   16.0214  -19.3645    0.0000 N   0  0
   16.7246  -18.1229    0.0000 O   0  0
 13 14  1  0
 14 15  1  0
 15 11  2  0
  3  4  2  0
 13 16  1  0
  7  8  1  0
 16 17  1  0
 16 18  1  0
  8  9  1  0
 16 19  1  0
  4  5  1  0
  5 20  1  0
  8 10  2  0
 20 21  1  0
  2  3  1  0
 21 22  1  0
  9 11  1  0
 21 23  2  0
 12 13  2  0
 22 24  2  0
  5  6  2  0
 24 25  1  0
  6  1  1  0
 25 26  2  0
  1  2  2  0
 26 27  1  0
  2  7  1  0
 27 28  2  0
 28 22  1  0
 11 12  1  0
 27 29  1  0
M  END