
          11280715372D 1   1.00000     0.00000     0

 32 34  0     1  0            999 V2000
    6.3292   -7.6917    0.0000 C   0  0  0  0  0  0           0  0  0
    5.5292   -7.8750    0.0000 N   0  0  3  0  0  0           0  0  0
    4.8875   -6.5292    0.0000 C   0  0  0  0  0  0           0  0  0
    6.6917   -6.9417    0.0000 C   0  0  1  0  0  0           0  0  0
    4.8875   -7.3625    0.0000 C   0  0  0  0  0  0           0  0  0
    6.3292   -6.2000    0.0000 C   0  0  1  0  0  0           0  0  0
    4.1667   -5.2917    0.0000 C   0  0  3  0  0  0           0  0  0
    4.1667   -6.1167    0.0000 C   0  0  0  0  0  0           0  0  0
    5.5292   -6.0167    0.0000 C   0  0  0  0  0  0           0  0  0
    7.5250   -6.9292    0.0000 O   0  0  0  0  0  0           0  0  0
    7.9417   -7.6417    0.0000 C   0  0  0  0  0  0           0  0  0
    6.8917   -5.5917    0.0000 C   0  0  0  0  0  0           0  0  0
    6.8500   -8.3542    0.0000 O   0  0  0  0  0  0           0  0  0
    8.7667   -7.6292    0.0000 O   0  0  0  0  0  0           0  0  0
    4.9667   -5.5042    0.0000 F   0  0  0  0  0  0           0  0  0
    4.8792   -4.8792    0.0000 F   0  0  0  0  0  0           0  0  0
    3.4542   -4.8792    0.0000 F   0  0  0  0  0  0           0  0  0
    7.7042   -5.7792    0.0000 C   0  0  0  0  0  0           0  0  0
    6.6542   -4.8042    0.0000 C   0  0  0  0  0  0           0  0  0
    5.3417   -8.6917    0.0000 C   0  0  0  0  0  0           0  0  0
    8.0167   -4.3792    0.0000 C   0  0  0  0  0  0           0  0  0
    4.1667   -7.7750    0.0000 C   0  0  0  0  0  0           0  0  0
    8.2667   -5.1750    0.0000 C   0  0  0  0  0  0           0  0  0
    7.2167   -4.1917    0.0000 C   0  0  0  0  0  0           0  0  0
    4.3792   -9.7417    0.0000 N   0  0  0  0  0  0           0  0  0
    3.4500   -6.5292    0.0000 C   0  0  0  0  0  0           0  0  0
    8.5750   -3.7625    0.0000 O   0  0  0  0  0  0           0  0  0
    3.4500   -7.3625    0.0000 C   0  0  0  0  0  0           0  0  0
    7.5417   -8.3625    0.0000 C   0  0  0  0  0  0           0  0  0
    4.5542   -8.9375    0.0000 C   0  0  0  0  0  0           0  0  0
    4.9875  -10.3000    0.0000 C   0  0  0  0  0  0           0  0  0
    8.3167   -2.9792    0.0000 C   0  0  0  0  0  0           0  0  0
  2  1  1  0     0  0
  3  5  1  0     0  0
  4  1  1  0     0  0
  5  2  1  0     0  0
  6  4  1  0     0  0
  7  8  1  0     0  0
  8  3  2  0     0  0
  9  6  1  0     0  0
  4 10  1  1     0  0
 11 10  1  0     0  0
  6 12  1  1     0  0
 13  1  2  0     0  0
 14 11  2  0     0  0
 15  7  1  0     0  0
 16  7  1  0     0  0
 17  7  1  0     0  0
 18 12  2  0     0  0
 19 12  1  0     0  0
 20  2  1  0     0  0
 21 24  1  0     0  0
 22  5  2  0     0  0
 23 18  1  0     0  0
 24 19  2  0     0  0
 25 30  1  0     0  0
 26 28  2  0     0  0
 27 21  1  0     0  0
 28 22  1  0     0  0
 29 11  1  0     0  0
 30 20  1  0     0  0
 31 25  1  0     0  0
 32 27  1  0     0  0
  3  9  1  0     0  0
 21 23  2  0     0  0
 26  8  1  0     0  0
M  END