
          02060813482D 1   1.00000     0.00000     0

 30 33  0     0  0            999 V2000
   12.3236   -4.9000    0.0000 C   0  0  0  0  0  0           0  0  0
   12.3224   -5.7273    0.0000 C   0  0  0  0  0  0           0  0  0
   13.0372   -6.1402    0.0000 C   0  0  0  0  0  0           0  0  0
   13.7537   -5.7269    0.0000 C   0  0  0  0  0  0           0  0  0
   13.7508   -4.8963    0.0000 C   0  0  0  0  0  0           0  0  0
   13.0354   -4.4872    0.0000 C   0  0  0  0  0  0           0  0  0
   14.4637   -4.4811    0.0000 O   0  0  0  0  0  0           0  0  0
   14.4688   -6.1382    0.0000 C   0  0  0  0  0  0           0  0  0
   14.4652   -6.9636    0.0000 C   0  0  0  0  0  0           0  0  0
   15.1795   -7.3749    0.0000 C   0  0  0  0  0  0           0  0  0
   15.8943   -6.9612    0.0000 C   0  0  0  0  0  0           0  0  0
   15.8903   -6.1319    0.0000 C   0  0  0  0  0  0           0  0  0
   15.1755   -5.7244    0.0000 N   0  0  0  0  0  0           0  0  0
   16.6027   -5.7158    0.0000 O   0  0  0  0  0  0           0  0  0
   16.6099   -7.3716    0.0000 C   0  0  0  0  0  0           0  0  0
   17.3208   -7.7833    0.0000 N   0  0  0  0  0  0           0  0  0
   15.1804   -8.1999    0.0000 C   0  0  0  0  0  0           0  0  0
   14.4669   -8.6082    0.0000 C   0  0  0  0  0  0           0  0  0
   14.4675   -9.4325    0.0000 C   0  0  0  0  0  0           0  0  0
   15.1829   -9.8450    0.0000 C   0  0  0  0  0  0           0  0  0
   15.8993   -9.4273    0.0000 C   0  0  0  0  0  0           0  0  0
   15.8952   -8.6044    0.0000 C   0  0  0  0  0  0           0  0  0
   16.6069   -8.1871    0.0000 Cl  0  0  0  0  0  0           0  0  0
   13.7532   -9.8454    0.0000 Cl  0  0  0  0  0  0           0  0  0
   11.6076   -6.1393    0.0000 C   0  0  3  0  0  0           0  0  0
   10.8972   -5.7217    0.0000 C   0  0  0  0  0  0           0  0  0
   10.1845   -6.1301    0.0000 C   0  0  0  0  0  0           0  0  0
   10.1796   -6.9555    0.0000 C   0  0  0  0  0  0           0  0  0
   10.8936   -7.3707    0.0000 C   0  0  0  0  0  0           0  0  0
   11.6125   -6.9607    0.0000 C   0  0  0  0  0  0           0  0  0
  5  7  1  0     0  0
 11 15  1  0     0  0
  3  4  2  0     0  0
 15 16  3  0     0  0
  4  8  1  0     0  0
 10 17  1  0     0  0
 17 18  2  0     0  0
  8  9  2  0     0  0
 18 19  1  0     0  0
  4  5  1  0     0  0
 19 20  2  0     0  0
  9 10  1  0     0  0
 20 21  1  0     0  0
  2  3  1  0     0  0
 21 22  2  0     0  0
 22 17  1  0     0  0
 10 11  2  0     0  0
 22 23  1  0     0  0
  5  6  2  0     0  0
 19 24  1  0     0  0
 11 12  1  0     0  0
  2 25  1  0     0  0
 25 26  1  0     0  0
  6  1  1  0     0  0
 12 13  1  0     0  0
 13  8  1  0     0  0
  1  2  2  0     0  0
 12 14  2  0     0  0
 25 30  1  0     0  0
 26 27  1  0     0  0
 27 28  1  0     0  0
 28 29  1  0     0  0
 29 30  1  0     0  0
M  END