
  SciTegic03291108552D

 24 27  0  0  0  0            999 V2000
   -0.7795   -2.0326    0.0000 S   0  0
    0.7196    0.2848    0.0000 S   0  0
   -2.3934   -0.3547    0.0000 O   0  0
    0.7196   -2.1902    0.0000 N   0  0
    1.4341   -0.9527    0.0000 N   0  0
    1.5203    1.5178    0.0000 N   0  0
    2.1877    0.3618    0.0000 N   0  0
    2.3273    1.6893    0.0000 N   0  0
    2.7398    0.9749    0.0000 N   0  0
    0.0051   -0.9527    0.0000 C   0  0
   -0.7795   -0.6977    0.0000 C   0  0
    0.0051   -1.7777    0.0000 C   0  0
    0.7196   -0.5402    0.0000 C   0  0
   -1.0344    0.0869    0.0000 C   0  0
   -1.2644   -1.3652    0.0000 C   0  0
    1.4341    0.6973    0.0000 C   0  0
   -1.8414    0.2584    0.0000 C   0  0
    1.4341   -1.7777    0.0000 C   0  0
   -0.4824    0.7000    0.0000 C   0  0
   -2.0963    1.0430    0.0000 C   0  0
   -0.7373    1.4846    0.0000 C   0  0
   -1.5443    1.6561    0.0000 C   0  0
    0.9072    2.0698    0.0000 C   0  0
   -3.2004   -0.1832    0.0000 C   0  0
  1 12  1  0
  1 15  1  0
  2 13  1  0
  2 16  1  0
  3 17  1  0
  3 24  1  0
  4 12  2  0
  4 18  1  0
  5 13  1  0
  5 18  2  0
  6  8  1  0
  6 16  1  0
  6 23  1  0
  7  9  1  0
  7 16  2  0
  8  9  2  0
 10 11  1  0
 10 12  1  0
 10 13  2  0
 11 14  1  0
 11 15  2  0
 14 17  2  0
 14 19  1  0
 17 20  1  0
 19 21  2  0
 20 22  2  0
 21 22  1  0
M  END