
  SciTegic05061116452D

 27 30  0  0  0  0            999 V2000
   11.4797  -18.8854    0.0000 C   0  0
   10.9361  -19.5086    0.0000 C   0  0
   10.1267  -19.3487    0.0000 C   0  0
   11.2160  -18.1063    0.0000 C   0  0
   10.4085  -17.9432    0.0000 C   0  0
    9.8610  -18.5618    0.0000 C   0  0
    9.1035  -18.2321    0.0000 C   0  0
    9.1830  -17.4098    0.0000 C   0  0
    9.9895  -17.2314    0.0000 N   0  0
    3.4096  -19.9079    0.0000 C   0  0
    3.4084  -20.7350    0.0000 C   0  0
    4.1229  -21.1476    0.0000 C   0  0
    4.1211  -19.4954    0.0000 C   0  0
    4.8361  -19.9043    0.0000 C   0  0
    4.8369  -20.7308    0.0000 C   0  0
    5.5520  -21.1415    0.0000 N   0  0
    6.2667  -20.7270    0.0000 C   0  0
    6.2619  -19.8974    0.0000 C   0  0
    5.5463  -19.4903    0.0000 N   0  0
    6.9824  -21.1365    0.0000 O   0  0
    6.9856  -21.9612    0.0000 C   0  0
    7.7014  -22.3707    0.0000 C   0  0
    6.9735  -19.4807    0.0000 C   0  0
    7.6901  -19.8887    0.0000 N   0  0
    8.3977  -19.4739    0.0000 C   0  0
    6.9685  -18.6560    0.0000 O   0  0
    8.3922  -18.6493    0.0000 C   0  0
 14 13  2  0
 13 10  1  0
  3  6  2  0
  1  2  2  0
 14 15  1  0
  5  4  2  0
 15 16  1  0
  6  7  1  0
 16 17  2  0
  7  8  2  0
 17 18  1  0
  8  9  1  0
 18 19  2  0
 19 14  1  0
  9  5  1  0
 17 20  1  0
  4  1  1  0
 20 21  1  0
  5  6  1  0
 21 22  1  0
 10 11  2  0
 18 23  1  0
 23 24  1  0
 11 12  1  0
 24 25  1  0
 12 15  2  0
 23 26  2  0
  2  3  1  0
 25 27  1  0
 27  7  1  0
M  END