
  SciTegic01091216402D

 23 24  0  0  0  0            999 V2000
    6.5755   -3.3737    0.0000 N   0  0
    6.7023   -4.1874    0.0000 N   0  0
    7.5174   -4.3213    0.0000 C   0  0
    7.8906   -3.5838    0.0000 C   0  0
    7.3087   -2.9990    0.0000 C   0  0
    5.8379   -3.0004    0.0000 C   0  0
    5.1471   -3.4477    0.0000 N   0  0
    5.7953   -2.1756    0.0000 N   0  0
    8.7044   -3.4569    0.0000 C   0  0
    9.2252   -4.0980    0.0000 C   0  0
    6.4903   -1.7281    0.0000 C   0  0
    7.2237   -2.1016    0.0000 C   0  0
    7.9146   -1.6543    0.0000 C   0  0
    4.4136   -3.0741    0.0000 S   0  0
    3.7003   -3.4835    0.0000 C   0  0
    3.7054   -4.3087    0.0000 C   0  0
    2.9884   -4.7241    0.0000 C   0  0
    2.2756   -4.3151    0.0000 C   0  0
    2.2726   -3.4864    0.0000 C   0  0
    2.9875   -3.0745    0.0000 C   0  0
    2.9934   -5.5493    0.0000 Cl  0  0
    3.8269   -2.4862    0.0000 O   0  0
    4.8189   -2.3576    0.0000 O   0  0
  2  3  2  0
  3  4  1  0
  4  5  1  0
  1  5  1  0
  6  7  2  0
  6  8  1  0
  1  6  1  0
  9 10  1  0
  4  9  1  0
 11 12  1  0
 12 13  1  0
  8 11  1  0
 15 16  1  0
 16 17  2  0
 17 18  1  0
 18 19  2  0
 19 20  1  0
 15 20  2  0
 14 15  1  0
 17 21  1  0
  7 14  1  0
 14 22  2  0
  1  2  1  0
 14 23  2  0
M  END