
  SciTegic12091613522D

 39 42  0  0  0  0            999 V2000
    7.9923    7.8301    0.0000 C   0  0
    7.5241    6.4042    0.0000 C   0  0
   -2.3155    0.7475    0.0000 C   0  0
   -2.3155   -0.7475    0.0000 C   0  0
   -1.0028   -1.5132    0.0000 C   0  0
   -1.0028    1.5132    0.0000 C   0  0
    0.2917    0.7475    0.0000 C   0  0
    0.2917   -0.7475    0.0000 C   0  0
    1.7138   -1.2033    0.0000 N   0  0
    2.5889    0.0182    0.0000 C   0  0
    1.7138    1.2033    0.0000 C   0  0
    2.1812    2.6271    0.0000 C   0  0
    3.6500    2.9355    0.0000 N   0  0
    4.1182    4.3614    0.0000 C   0  0
    5.5870    4.6698    0.0000 C   0  0
    6.0553    6.0958    0.0000 N   0  0
    1.3808    3.5211    0.0000 O   0  0
    8.3245    5.5101    0.0000 O   0  0
    2.1852   -2.6281    0.0000 C   0  0
    3.6221   -3.0405    0.0000 C   0  0
    3.9838   -4.4963    0.0000 C   0  0
    2.9039   -5.5373    0.0000 C   0  0
    1.4624   -5.1227    0.0000 C   0  0
    1.1007   -3.6669    0.0000 C   0  0
    0.3819   -6.1644    0.0000 C   0  0
    0.6705   -7.3291    0.0000 F   0  0
   -0.7712   -5.8323    0.0000 F   0  0
   -0.4824   -6.9968    0.0000 F   0  0
    5.2548    6.9898    0.0000 C   0  0
   -3.6187    1.4919    0.0000 N   0  3
   -3.6251    2.6919    0.0000 O   0  0
   -4.6549    0.8867    0.0000 O   0  5
    4.4505    2.0415    0.0000 C   0  0
    6.9898    8.9460    0.0000 C   0  0
    7.4549   10.3721    0.0000 C   0  0
    8.9224   10.6823    0.0000 C   0  0
    9.9249    9.5665    0.0000 C   0  0
    9.4598    8.1405    0.0000 C   0  0
   10.2619    7.2478    0.0000 F   0  0
  1  2  1  0
  3  4  2  0
  4  5  1  0
  5  8  2  0
  7  6  2  0
  6  3  1  0
  7  8  1  0
  8  9  1  0
  9 10  1  0
 10 11  2  0
 11  7  1  0
 11 12  1  0
 12 13  1  0
 13 14  1  0
 14 15  1  0
 15 16  1  0
 16  2  1  0
 12 17  2  0
  2 18  2  0
 19 20  2  0
 20 21  1  0
 21 22  2  0
 22 23  1  0
 23 24  2  0
 24 19  1  0
  9 19  1  0
 25 26  1  0
 25 27  1  0
 25 28  1  0
 23 25  1  0
 16 29  1  0
 30 31  2  0
 30 32  1  0
  3 30  1  0
 13 33  1  0
  1 34  2  0
 34 35  1  0
 35 36  2  0
 36 37  1  0
 37 38  2  0
 38  1  1  0
 38 39  1  0
M  CHG  2  30   1  32  -1
M  END