
  Mrv0541 05211314572D          

 25 27  0  0  0  0            999 V2000
   -2.2847    0.7434    0.0000 C   0  0  0  0  0  0  0  0  0  0  0  0
   -1.5703    0.3309    0.0000 N   0  0  0  0  0  0  0  0  0  0  0  0
   -2.9992    0.3309    0.0000 C   0  0  0  0  0  0  0  0  0  0  0  0
    2.0021   -0.9066    0.0000 O   0  0  0  0  0  0  0  0  0  0  0  0
    2.0021    0.7434    0.0000 O   0  0  0  0  0  0  0  0  0  0  0  0
   -0.1413   -0.4941    0.0000 N   0  0  0  0  0  0  0  0  0  0  0  0
    2.7166   -0.4941    0.0000 C   0  0  0  0  0  0  0  0  0  0  0  0
    1.2876   -0.4941    0.0000 C   0  0  0  0  0  0  0  0  0  0  0  0
   -3.0854   -0.4896    0.0000 O   0  0  0  0  0  0  0  0  0  0  0  0
    2.7166    0.3309    0.0000 C   0  0  0  0  0  0  0  0  0  0  0  0
   -2.2847    1.5684    0.0000 O   0  0  0  0  0  0  0  0  0  0  0  0
   -3.7529    0.6665    0.0000 C   0  0  0  0  0  0  0  0  0  0  0  0
   -0.8558    0.7434    0.0000 C   0  0  0  0  0  0  0  0  0  0  0  0
   -1.5703   -0.4941    0.0000 C   0  0  0  0  0  0  0  0  0  0  0  0
   -3.8924   -0.6611    0.0000 C   0  0  0  0  0  0  0  0  0  0  0  0
    0.5732   -0.9066    0.0000 C   0  0  0  0  0  0  0  0  0  0  0  0
   -4.3049    0.0534    0.0000 C   0  0  0  0  0  0  0  0  0  0  0  0
    1.2876    0.3309    0.0000 C   0  0  0  0  0  0  0  0  0  0  0  0
   -0.1413    0.3309    0.0000 C   0  0  0  0  0  0  0  0  0  0  0  0
   -0.8558   -0.9066    0.0000 C   0  0  0  0  0  0  0  0  0  0  0  0
    6.3848    0.0000    0.0000 Cl  0  0  0  0  0  0  0  0  0  0  0  0
    3.4310   -0.9066    0.0000 C   0  0  0  0  0  0  0  0  0  0  0  0
    3.4310    0.7434    0.0000 C   0  0  0  0  0  0  0  0  0  0  0  0
    4.1455   -0.4941    0.0000 C   0  0  0  0  0  0  0  0  0  0  0  0
    4.1455    0.3309    0.0000 C   0  0  0  0  0  0  0  0  0  0  0  0
  1  2  1  0  0  0  0
  1  3  1  0  0  0  0
  4  7  1  0  0  0  0
  4  8  1  0  0  0  0
  3  9  1  0  0  0  0
  5 10  1  0  0  0  0
  7 10  2  0  0  0  0
  1 11  2  0  0  0  0
  3 12  2  0  0  0  0
  2 13  1  0  0  0  0
  2 14  1  0  0  0  0
  9 15  1  0  0  0  0
  6 16  1  0  0  0  0
  8 16  1  0  0  0  0
 12 17  1  0  0  0  0
 15 17  2  0  0  0  0
  5 18  1  0  0  0  0
  8 18  1  0  0  0  0
  6 19  1  0  0  0  0
 13 19  1  0  0  0  0
  6 20  1  0  0  0  0
 14 20  1  0  0  0  0
  7 22  1  0  0  0  0
 10 23  1  0  0  0  0
 22 24  2  0  0  0  0
 23 25  2  0  0  0  0
 24 25  1  0  0  0  0
M  END