
          11280715572D 1   1.00000     0.00000     0

 76 81  0     1  0            999 V2000
   10.8750   -5.3167    0.0000 N   0  0  3  0  0  0           0  0  0
   10.3625   -5.0167    0.0000 C   0  0  0  0  0  0           0  0  0
    4.1125   -5.0542    0.0000 C   0  0  0  0  0  0           0  0  0
    5.6792   -5.3417    0.0000 C   0  0  0  0  0  0           0  0  0
    7.2375   -5.0292    0.0000 C   0  0  0  0  0  0           0  0  0
    8.8000   -5.3167    0.0000 C   0  0  0  0  0  0           0  0  0
   11.4375   -5.5292    0.0000 C   0  0  3  0  0  0           0  0  0
   -0.1500   -6.1292    0.0000 N   0  0  0  0  0  0           0  0  0
    4.6375   -5.3500    0.0000 N   0  0  0  0  0  0           0  0  0
    3.5917   -5.3625    0.0000 C   0  0  1  0  0  0           0  0  0
    7.7625   -5.3250    0.0000 N   0  0  0  0  0  0           0  0  0
    6.1917   -5.0375    0.0000 N   0  0  0  0  0  0           0  0  0
    9.3167   -5.0042    0.0000 N   0  0  0  0  0  0           0  0  0
    6.7167   -5.3292    0.0000 C   0  0  2  0  0  0           0  0  0
    5.1500   -5.0417    0.0000 C   0  0  1  0  0  0           0  0  0
    8.2792   -5.0167    0.0000 C   0  0  1  0  0  0           0  0  0
    0.4292   -5.9792    0.0000 C   0  0  0  0  0  0           0  0  0
   11.5917   -6.1167    0.0000 C   0  0  0  0  0  0           0  0  0
    9.8417   -5.3167    0.0000 C   0  0  1  0  0  0           0  0  0
   10.8500   -7.7292    0.0000 C   0  0  0  0  0  0           0  0  0
    0.4750   -5.3792    0.0000 C   0  0  0  0  0  0           0  0  0
    3.0750   -5.0625    0.0000 N   0  0  0  0  0  0           0  0  0
   -0.0833   -5.1625    0.0000 C   0  0  0  0  0  0           0  0  0
    2.5500   -5.3667    0.0000 C   0  0  0  0  0  0           0  0  0
   -0.4708   -5.6167    0.0000 C   0  0  0  0  0  0           0  0  0
   10.3292   -8.0167    0.0000 N   0  0  0  0  0  0           0  0  0
   10.3667   -4.4167    0.0000 O   0  0  0  0  0  0           0  0  0
    6.7250   -5.9292    0.0000 C   0  0  0  0  0  0           0  0  0
    4.1042   -4.4542    0.0000 O   0  0  0  0  0  0           0  0  0
    5.6792   -5.9417    0.0000 O   0  0  0  0  0  0           0  0  0
    7.2292   -4.4292    0.0000 O   0  0  0  0  0  0           0  0  0
    8.8042   -5.9167    0.0000 O   0  0  0  0  0  0           0  0  0
    7.7667   -7.1167    0.0000 C   0  0  0  0  0  0           0  0  0
    5.1500   -4.4417    0.0000 C   0  0  0  0  0  0           0  0  0
    7.2417   -6.2292    0.0000 C   0  0  0  0  0  0           0  0  0
    7.2417   -6.8250    0.0000 C   0  0  0  0  0  0           0  0  0
   11.1625   -6.5375    0.0000 O   0  0  0  0  0  0           0  0  0
    8.2667   -4.4167    0.0000 C   0  0  0  0  0  0           0  0  0
    2.5542   -5.9667    0.0000 O   0  0  0  0  0  0           0  0  0
   10.8542   -7.1292    0.0000 N   0  0  0  0  0  0           0  0  0
    8.2792   -6.8167    0.0000 C   0  0  0  0  0  0           0  0  0
   12.1667   -6.2667    0.0000 N   0  0  0  0  0  0           0  0  0
   11.3667   -8.0292    0.0000 N   0  0  0  0  0  0           0  0  0
    8.2750   -6.2167    0.0000 C   0  0  0  0  0  0           0  0  0
   10.9042   -4.7167    0.0000 C   0  0  0  0  0  0           0  0  0
    5.6667   -4.1292    0.0000 C   0  0  0  0  0  0           0  0  0
    7.7542   -5.9250    0.0000 C   0  0  0  0  0  0           0  0  0
    6.7042   -3.5292    0.0000 C   0  0  0  0  0  0           0  0  0
    3.6000   -5.9542    0.0000 C   0  0  0  0  0  0           0  0  0
    5.6625   -3.5375    0.0000 C   0  0  0  0  0  0           0  0  0
    6.1917   -4.4292    0.0000 C   0  0  0  0  0  0           0  0  0
    6.1792   -3.2292    0.0000 C   0  0  0  0  0  0           0  0  0
    6.7125   -4.1292    0.0000 C   0  0  0  0  0  0           0  0  0
   11.8167   -5.0667    0.0000 C   0  0  0  0  0  0           0  0  0
    0.9917   -5.0792    0.0000 C   0  0  0  0  0  0           0  0  0
    7.2167   -3.2250    0.0000 O   0  0  0  0  0  0           0  0  0
    4.1167   -6.2542    0.0000 O   0  0  0  0  0  0           0  0  0
    2.0292   -5.0667    0.0000 C   0  0  0  0  0  0           0  0  0
    1.5125   -5.3750    0.0000 C   0  0  0  0  0  0           0  0  0
   11.4917   -4.5667    0.0000 C   0  0  0  0  0  0           0  0  0
    9.8292   -5.9167    0.0000 C   0  0  0  0  0  0           0  0  0
   -0.2833   -4.6000    0.0000 C   0  0  0  0  0  0           0  0  0
    8.7875   -4.1167    0.0000 C   0  0  3  0  0  0           0  0  0
   -1.0583   -5.5167    0.0000 C   0  0  0  0  0  0           0  0  0
    7.7750   -7.7125    0.0000 C   0  0  0  0  0  0           0  0  0
   12.3167   -6.8542    0.0000 C   0  0  0  0  0  0           0  0  0
   10.3417   -6.8250    0.0000 C   0  0  0  0  0  0           0  0  0
    8.8000   -7.1042    0.0000 C   0  0  0  0  0  0           0  0  0
   10.3500   -6.2250    0.0000 C   0  0  0  0  0  0           0  0  0
    9.3125   -4.4042    0.0000 C   0  0  0  0  0  0           0  0  0
    8.7792   -3.5167    0.0000 C   0  0  0  0  0  0           0  0  0
   12.9000   -7.0042    0.0000 C   0  0  0  0  0  0           0  0  0
   -0.8708   -4.4917    0.0000 C   0  0  0  0  0  0           0  0  0
    8.2917   -8.0042    0.0000 C   0  0  0  0  0  0           0  0  0
   -1.2583   -4.9542    0.0000 C   0  0  0  0  0  0           0  0  0
    8.8042   -7.7000    0.0000 C   0  0  0  0  0  0           0  0  0
  2  1  1  0     0  0
  3  9  1  0     0  0
  4 12  1  0     0  0
  5 11  1  0     0  0
  6 13  1  0     0  0
  7  1  1  0     0  0
  8 17  1  0     0  0
  9 15  1  0     0  0
 10  3  1  0     0  0
 11 16  1  0     0  0
 12 14  1  0     0  0
 13 19  1  0     0  0
 14  5  1  0     0  0
 15  4  1  0     0  0
 16  6  1  0     0  0
 17 21  2  0     0  0
 18  7  1  0     0  0
 19  2  1  0     0  0
 20 40  2  0     0  0
 21 55  1  0     0  0
 22 10  1  0     0  0
 23 21  1  0     0  0
 24 22  1  0     0  0
 25 23  2  0     0  0
 26 20  1  0     0  0
 27  2  2  0     0  0
 14 28  1  1     0  0
 29  3  2  0     0  0
 30  4  2  0     0  0
 31  5  2  0     0  0
 32  6  2  0     0  0
 33 36  1  0     0  0
 15 34  1  1     0  0
 35 28  1  0     0  0
 36 35  2  0     0  0
 37 18  2  0     0  0
 16 38  1  1     0  0
 39 24  2  0     0  0
 40 67  1  0     0  0
 41 44  1  0     0  0
 42 18  1  0     0  0
 43 20  1  0     0  0
 44 47  2  0     0  0
 45  1  1  0     0  0
 46 34  1  0     0  0
 47 35  1  0     0  0
 48 53  2  0     0  0
 10 49  1  6     0  0
 50 46  1  0     0  0
 51 46  2  0     0  0
 52 50  2  0     0  0
 53 51  1  0     0  0
 54  7  1  0     0  0
 55 59  1  0     0  0
 56 48  1  0     0  0
 57 49  1  0     0  0
 58 24  1  0     0  0
 59 58  1  0     0  0
 60 45  1  0     0  0
 19 61  1  6     0  0
 62 23  1  0     0  0
 63 38  1  0     0  0
 64 25  1  0     0  0
 65 33  2  0     0  0
 66 42  1  0     0  0
 67 69  1  0     0  0
 68 41  2  0     0  0
 69 61  1  0     0  0
 70 63  1  0     0  0
 71 63  1  0     0  0
 72 66  1  0     0  0
 73 62  2  0     0  0
 74 65  1  0     0  0
 75 73  1  0     0  0
 76 68  1  0     0  0
 60 54  1  0     0  0
 41 33  1  0     0  0
 74 76  2  0     0  0
 52 48  1  0     0  0
 25  8  1  0     0  0
 75 64  2  0     0  0
M  END