
  SciTegic09141214152D

 27 29  0  0  0  0            999 V2000
    1.0689   -4.0501    0.0000 C   0  0
    1.8789   -3.8747    0.0000 N   0  0
    1.9666   -3.0563    0.0000 C   0  0
    1.2067   -2.7223    0.0000 N   0  0
    0.6556   -3.3361    0.0000 C   0  0
    0.7307   -4.8016    0.0000 C   0  0
    1.1441   -5.5239    0.0000 S   0  0
    2.6848   -2.6430    0.0000 C   0  0
   -0.0752   -4.9770    0.0000 C   0  0
    0.5929   -6.1377    0.0000 C   0  0
   -0.1586   -5.8037    0.0000 C   0  0
    2.6848   -1.8163    0.0000 C   0  0
    3.3987   -3.0563    0.0000 C   0  0
    4.8267   -1.3946    0.0000 O   0  0
    4.1127   -1.8079    0.0000 C   0  0
    6.2630   -1.3904    0.0000 C   0  0  1  0  0  0
    5.5490   -1.8037    0.0000 C   0  0
    3.3987   -1.3946    0.0000 C   0  0
    4.1127   -2.6430    0.0000 C   0  0
    7.6951   -1.3821    0.0000 N   0  0
    6.2546   -0.5637    0.0000 O   0  0
    9.8370   -1.7829    0.0000 O   0  0
    6.9811   -1.7954    0.0000 C   0  0
    8.4091   -1.7954    0.0000 C   0  0
    9.1231   -1.3778    0.0000 C   0  0
   10.5593   -1.3695    0.0000 C   0  0
   11.2733   -1.7829    0.0000 C   0  0
  2  1  1  0
  3  2  2  0
  4  5  1  0
  5  1  2  0
  6  1  1  0
  7  6  1  0
  8  3  1  0
  9  6  2  0
 10  7  1  0
 11  9  1  0
 12  8  2  0
 13  8  1  0
 14 15  1  0
 15 19  1  0
 16 17  1  0
 17 14  1  0
 18 12  1  0
 19 13  2  0
 20 23  1  0
 16 21  1  1
 22 25  1  0
 23 16  1  0
 24 20  1  0
 25 24  1  0
 26 22  1  0
 27 26  1  0
  3  4  1  0
 11 10  2  0
 15 18  2  0
M  END