
  SciTegic10301317112D

 26 26  0  0  0  0            999 V2000
    0.3633   -1.3570    0.0000 S   0  0
    3.6618   -1.3445    0.0000 C   0  0
    1.1900   -1.3570    0.0000 C   0  0
    9.1857   -4.7139    0.0000 C   0  0
    7.9456   -4.0125    0.0000 N   0  0
    7.4571   -3.3361    0.0000 C   0  0
    4.0751   -2.0585    0.0000 N   0  0
    0.3549   -2.1837    0.0000 O   0  0
    0.3633   -0.5303    0.0000 O   0  0
    5.3235   -2.7599    0.0000 C   0  0
    8.7723   -4.0000    0.0000 C   0  0  1  0  0  0
    2.8351   -1.3445    0.0000 C   0  0
   -0.4635   -1.3528    0.0000 N   0  0
    6.1502   -2.7599    0.0000 N   0  0
    4.0709   -0.6263    0.0000 O   0  0
    8.7807   -5.4362    0.0000 O   0  0
    7.7953   -2.5845    0.0000 O   0  0
    4.9144   -3.4822    0.0000 O   0  0
    1.5908   -0.6430    0.0000 C   0  0
    1.6033   -2.0710    0.0000 C   0  0
    2.4217   -2.0668    0.0000 C   0  0
    2.4092   -0.6305    0.0000 C   0  0
    4.9018   -2.0459    0.0000 C   0  0
    6.6387   -3.4238    0.0000 C   0  0
   10.0124   -4.7139    0.0000 O   0  0
    9.1815   -3.2860    0.0000 C   0  0
  2 12  1  0
  3  1  1  0
  4 11  1  0
  5  6  1  0
  6 24  1  0
  7  2  1  0
  8  1  2  0
  9  1  2  0
 10 23  1  0
 11  5  1  0
 12 21  2  0
 13  1  1  0
 14 10  1  0
 15  2  2  0
 16  4  2  0
 17  6  2  0
 18 10  2  0
 19  3  1  0
 20  3  2  0
 21 20  1  0
 22 19  2  0
 23  7  1  0
 24 14  1  0
 25  4  1  0
 11 26  1  1
 22 12  1  0
M  END