
  CDK    9/16/09,10:4

 35 38  0  0  0  0  0  0  0  0999 V2000
    2.0203  -11.9436    0.0000 C   0  0  0  0  0  0  0  0  0  0  0  0
    2.8496  -11.9247    0.0000 C   0  0  0  0  0  0  0  0  0  0  0  0
    3.2457  -11.2010    0.0000 C   0  0  0  0  0  0  0  0  0  0  0  0
    2.8169  -10.4915    0.0000 C   0  0  0  0  0  0  0  0  0  0  0  0
    1.9875  -10.5104    0.0000 C   0  0  0  0  0  0  0  0  0  0  0  0
    1.5870  -11.2388    0.0000 N   0  0  0  0  0  0  0  0  0  0  0  0
    2.2225  -11.5630    0.0000 C   0  0  0  0  0  0  0  0  0  0  0  0
    2.5459  -10.8680    0.0000 C   0  0  0  0  0  0  0  0  0  0  0  0
    0.7623  -11.2663    0.0000 C   0  0  0  0  0  0  0  0  0  0  0  0
    4.0707  -11.1907    0.0000 C   0  0  0  0  0  0  0  0  0  0  0  0
    4.8956  -11.1766    0.0000 C   0  0  0  0  0  0  0  0  0  0  0  0
    4.0829  -12.0156    0.0000 O   0  0  0  0  0  0  0  0  0  0  0  0
    4.0585  -10.3658    0.0000 C   0  0  0  0  0  0  0  0  0  0  0  0
    4.7676   -9.9456    0.0000 C   0  0  0  0  0  0  0  0  0  0  0  0
    4.7558   -9.1214    0.0000 C   0  0  0  0  0  0  0  0  0  0  0  0
    4.0347   -8.7187    0.0000 C   0  0  0  0  0  0  0  0  0  0  0  0
    3.3241   -9.1462    0.0000 C   0  0  0  0  0  0  0  0  0  0  0  0
    3.3394   -9.9690    0.0000 C   0  0  0  0  0  0  0  0  0  0  0  0
    5.3186  -11.8862    0.0000 C   0  0  0  0  0  0  0  0  0  0  0  0
    6.1427  -11.8723    0.0000 C   0  0  0  0  0  0  0  0  0  0  0  0
    6.5436  -11.1503    0.0000 C   0  0  0  0  0  0  0  0  0  0  0  0
    6.1144  -10.4406    0.0000 C   0  0  0  0  0  0  0  0  0  0  0  0
    5.2916  -10.4580    0.0000 C   0  0  0  0  0  0  0  0  0  0  0  0
    0.3263  -10.5659    0.0000 C   0  0  0  0  0  0  0  0  0  0  0  0
   -0.4983  -10.5933    0.0000 O   0  0  0  0  0  0  0  0  0  0  0  0
   -0.9343   -9.8931    0.0000 C   0  0  0  0  0  0  0  0  0  0  0  0
   -1.7588   -9.9204    0.0000 C   0  0  0  0  0  0  0  0  0  0  0  0
   -2.1912   -9.2188    0.0000 C   0  0  0  0  0  0  0  0  0  0  0  0
   -3.0150   -9.2458    0.0000 C   0  0  0  0  0  0  0  0  0  0  0  0
   -3.4043   -9.9742    0.0000 C   0  0  0  0  0  0  0  0  0  0  0  0
   -2.9638  -10.6768    0.0000 C   0  0  0  0  0  0  0  0  0  0  0  0
   -2.1415  -10.6462    0.0000 C   0  0  0  0  0  0  0  0  0  0  0  0
   -4.2319  -10.0047    0.0000 C   0  0  0  0  0  0  0  0  0  0  0  0
   -5.0563  -10.0332    0.0000 N   0  0  0  0  0  0  0  0  0  0  0  0
    1.7096   -6.7284    0.0000 Br  0  0  0  0  0  0  0  0  0  0  0  0
 16 17  1  0  0  0  0 
  7  8  1  0  0  0  0 
 17 18  2  0  0  0  0 
 18 13  1  0  0  0  0 
  3  8  1  0  0  0  0 
 11 19  2  0  0  0  0 
  1  2  1  0  0  0  0 
 19 20  1  0  0  0  0 
  6  9  1  0  0  0  0 
 20 21  2  0  0  0  0 
  1  6  1  0  0  0  0 
 21 22  1  0  0  0  0 
  3 10  1  0  0  0  0 
 22 23  2  0  0  0  0 
 23 11  1  0  0  0  0 
  2  3  1  0  0  0  0 
  9 24  1  0  0  0  0 
 10 11  1  0  0  0  0 
 24 25  1  0  0  0  0 
  3  4  1  0  0  0  0 
 25 26  1  0  0  0  0 
 10 12  1  0  0  0  0 
 26 27  1  0  0  0  0 
  4  5  1  0  0  0  0 
 27 28  2  0  0  0  0 
 10 13  1  0  0  0  0 
 28 29  1  0  0  0  0 
  5  6  1  0  0  0  0 
 29 30  2  0  0  0  0 
 13 14  2  0  0  0  0 
 30 31  1  0  0  0  0 
 31 32  2  0  0  0  0 
 32 27  1  0  0  0  0 
 14 15  1  0  0  0  0 
  6  7  1  0  0  0  0 
 33 34  3  0  0  0  0 
 30 33  1  0  0  0  0 
 15 16  2  0  0  0  0 
M  CHG  1   6   1
M  CHG  1  35  -1
M  END