
  SciTegic06051313552D

 34 37  0  0  0  0            999 V2000
    2.9124  -25.1307    0.0000 C   0  0
    2.9113  -25.9502    0.0000 C   0  0
    3.6193  -26.3592    0.0000 C   0  0
    3.6175  -24.7218    0.0000 C   0  0
    5.1099  -24.8710    0.0000 C   0  0
    4.3261  -25.1271    0.0000 C   0  0
    4.3287  -25.9523    0.0000 C   0  0
    5.1150  -26.2036    0.0000 N   0  0
    5.5957  -25.5328    0.0000 N   0  0
    5.3719  -26.9793    0.0000 C   0  0
    4.9536  -27.6804    0.0000 C   0  0
    4.1388  -27.6659    0.0000 C   0  0
    3.7199  -28.3666    0.0000 C   0  0
    4.1180  -29.0813    0.0000 C   0  0
    4.9394  -29.0908    0.0000 C   0  0
    5.3546  -28.3894    0.0000 C   0  0
    5.3400  -29.8031    0.0000 C   0  0
    4.9235  -30.5061    0.0000 N   0  0
    5.3241  -31.2184    0.0000 C   0  0
    4.9075  -31.9214    0.0000 O   0  0
    6.1412  -31.2276    0.0000 C   0  0
    5.5316  -24.1710    0.0000 N   0  0
    6.3486  -24.1862    0.0000 S   0  0
    6.8352  -24.8426    0.0000 C   0  0
    6.3212  -23.3625    0.0000 O   0  0
    7.1300  -23.9430    0.0000 O   0  0
    6.5902  -25.6242    0.0000 C   0  0
    7.2565  -26.0989    0.0000 C   0  0
    7.9132  -25.6106    0.0000 C   0  0
    7.6505  -24.8358    0.0000 S   0  0
    8.6933  -25.8539    0.0000 Cl  0  0
    3.6109  -23.9087    0.0000 C   0  0
    4.3152  -23.4944    0.0000 F   0  0
    2.8999  -23.5059    0.0000 F   0  0
  1  2  2  0
  2  3  1  0
  3  7  2  0
  6  4  2  0
  4  1  1  0
  6  7  1  0
  5  6  1  0
  7  8  1  0
  8  9  1  0
  9  5  2  0
  8 10  1  0
 10 11  1  0
 11 12  2  0
 12 13  1  0
 13 14  2  0
 14 15  1  0
 15 16  2  0
 16 11  1  0
 15 17  1  0
 17 18  1  0
 18 19  1  0
 19 20  2  0
 19 21  1  0
  5 22  1  0
 22 23  1  0
 23 24  1  0
 23 25  2  0
 23 26  2  0
 27 28  1  0
 24 27  2  0
 28 29  2  0
 29 30  1  0
 30 24  1  0
 29 31  1  0
  4 32  1  0
 32 33  1  0
 32 34  1  0
M  END