
  SciTegic01161211242D

 21 22  0  0  0  0            999 V2000
   -4.9153    0.7255    0.0000 C   0  0
    1.7138   -1.2033    0.0000 N   0  0
    0.2917   -0.7475    0.0000 C   0  0
    0.2917    0.7475    0.0000 C   0  0
    2.5889    0.0182    0.0000 C   0  0
    1.7138    1.2033    0.0000 C   0  0
   -3.6217    1.4865    0.0000 N   0  0
   -6.2216    1.4644    0.0000 N   0  0
   -1.0028   -1.5132    0.0000 C   0  0
   -1.0028    1.5132    0.0000 C   0  0
   -2.3155    0.7475    0.0000 C   0  0
   -4.9050   -0.4745    0.0000 O   0  0
  -10.1132    0.6766    0.0000 N   0  0
   -2.3155   -0.7475    0.0000 C   0  0
   -7.5151    0.7033    0.0000 C   0  0
    5.0889   -0.5574    0.0000 Cl  0  0
    2.0907   -2.3426    0.0000 C   0  0
   -8.8219    1.4399    0.0000 C   0  0
  -10.0978   -0.8233    0.0000 C   0  0
   -7.4999   -0.7967    0.0000 C   0  0
   -8.7911   -1.5600    0.0000 C   0  0
  2  3  1  0
  3  4  1  0
  2  5  1  0
  4  6  1  0
  5  6  2  0
  1  7  1  0
  1  8  1  0
  3  9  2  0
  4 10  2  0
  7 11  1  0
 10 11  1  0
  1 12  2  0
  9 14  1  0
 11 14  2  0
  8 15  1  0
  2 17  1  0
 13 18  1  0
 15 18  2  0
 13 19  2  0
 15 20  1  0
 19 21  1  0
 20 21  2  0
M  END