
  CDK    9/16/09,9:51

 31 35  0  0  0  0  0  0  0  0999 V2000
    5.4954   -6.0936    0.0000 C   0  0  0  0  0  0  0  0  0  0  0  0
    5.1019   -6.8240    0.0000 N   0  0  0  0  0  0  0  0  0  0  0  0
    5.5352   -7.5260    0.0000 C   0  0  0  0  0  0  0  0  0  0  0  0
    6.3639   -7.5039    0.0000 C   0  0  0  0  0  0  0  0  0  0  0  0
    6.7574   -6.7735    0.0000 N   0  0  0  0  0  0  0  0  0  0  0  0
    6.3221   -6.0653    0.0000 C   0  0  0  0  0  0  0  0  0  0  0  0
    7.5821   -6.7501    0.0000 C   0  0  0  0  0  0  0  0  0  0  0  0
    8.0147   -7.4525    0.0000 C   0  0  0  0  0  0  0  0  0  0  0  0
    7.6977   -8.2141    0.0000 C   0  0  0  0  0  0  0  0  0  0  0  0
    8.3262   -8.7485    0.0000 S   0  0  0  0  0  0  0  0  0  0  0  0
    9.0287   -8.3158    0.0000 C   0  0  0  0  0  0  0  0  0  0  0  0
    8.8342   -7.5140    0.0000 C   0  0  0  0  0  0  0  0  0  0  0  0
    9.3681   -6.8851    0.0000 C   0  0  0  0  0  0  0  0  0  0  0  0
   10.1797   -7.0330    0.0000 O   0  0  0  0  0  0  0  0  0  0  0  0
    9.0904   -6.1082    0.0000 C   0  0  0  0  0  0  0  0  0  0  0  0
    9.6236   -5.4825    0.0000 C   0  0  0  0  0  0  0  0  0  0  0  0
    9.3464   -4.7063    0.0000 C   0  0  0  0  0  0  0  0  0  0  0  0
    8.5339   -4.5579    0.0000 C   0  0  0  0  0  0  0  0  0  0  0  0
    7.9993   -5.1918    0.0000 C   0  0  0  0  0  0  0  0  0  0  0  0
    8.2794   -5.9656    0.0000 C   0  0  0  0  0  0  0  0  0  0  0  0
    8.2552   -3.7814    0.0000 Cl  0  0  0  0  0  0  0  0  0  0  0  0
    9.7917   -8.6298    0.0000 N   0  0  0  0  0  0  0  0  0  0  0  0
    4.2772   -6.8483    0.0000 C   0  0  0  0  0  0  0  0  0  0  0  0
    3.8487   -6.1441    0.0000 C   0  0  0  0  0  0  0  0  0  0  0  0
    3.0248   -6.1680    0.0000 C   0  0  0  0  0  0  0  0  0  0  0  0
    3.8930   -7.5718    0.0000 C   0  0  0  0  0  0  0  0  0  0  0  0
    3.0705   -7.5992    0.0000 C   0  0  0  0  0  0  0  0  0  0  0  0
    2.6323   -6.8992    0.0000 C   0  0  0  0  0  0  0  0  0  0  0  0
    1.8313   -7.0998    0.0000 O   0  0  0  0  0  0  0  0  0  0  0  0
    1.7744   -7.9236    0.0000 C   0  0  0  0  0  0  0  0  0  0  0  0
    2.5403   -8.2321    0.0000 O   0  0  0  0  0  0  0  0  0  0  0  0
 13 15  1  0  0  0  0 
  1  2  1  0  0  0  0 
 15 16  2  0  0  0  0 
  7  8  1  0  0  0  0 
 16 17  1  0  0  0  0 
  8  9  2  0  0  0  0 
 17 18  2  0  0  0  0 
  1  6  1  0  0  0  0 
 18 19  1  0  0  0  0 
  2  3  1  0  0  0  0 
 19 20  2  0  0  0  0 
 20 15  1  0  0  0  0 
  3  4  1  0  0  0  0 
 18 21  1  0  0  0  0 
  4  5  1  0  0  0  0 
 11 22  1  0  0  0  0 
  9 10  1  0  0  0  0 
  2 23  1  0  0  0  0 
 10 11  1  0  0  0  0 
 23 24  2  0  0  0  0 
 11 12  2  0  0  0  0 
 24 25  1  0  0  0  0 
 25 28  2  0  0  0  0 
 12  8  1  0  0  0  0 
 27 26  2  0  0  0  0 
 26 23  1  0  0  0  0 
 27 28  1  0  0  0  0 
  5  6  1  0  0  0  0 
 12 13  1  0  0  0  0 
 13 14  2  0  0  0  0 
  5  7  1  0  0  0  0 
 28 29  1  0  0  0  0 
 29 30  1  0  0  0  0 
 30 31  1  0  0  0  0 
 31 27  1  0  0  0  0 
M  END