
  SciTegic10011413212D

 28 30  0  0  0  0            999 V2000
   14.5168  -17.0293    0.0000 C   0  0
   15.2313  -16.6168    0.0000 C   0  0
   15.9457  -17.0293    0.0000 C   0  0
   16.6602  -16.6168    0.0000 C   0  0
   17.3747  -17.0293    0.0000 N   0  0
   18.0891  -16.6168    0.0000 C   0  0
   18.8036  -17.0293    0.0000 N   0  0
   18.0891  -15.7918    0.0000 N   0  0
   19.5181  -16.6168    0.0000 C   0  0
   20.2325  -17.0293    0.0000 C   0  0
   20.9470  -16.6168    0.0000 C   0  0
   21.6615  -17.0293    0.0000 C   0  0
   20.9470  -15.7918    0.0000 C   0  0
   19.5181  -15.7918    0.0000 O   0  0
   13.7291  -16.7689    0.0000 N   0  0
   13.2372  -17.4312    0.0000 N   0  0
   13.7150  -18.1038    0.0000 C   0  0
   14.5022  -17.8570    0.0000 N   0  0
   21.6615  -15.3793    0.0000 C   0  0
   21.6615  -14.5543    0.0000 C   0  0
   20.9470  -14.1418    0.0000 C   0  0
   20.2325  -14.5543    0.0000 C   0  0
   20.2325  -15.3793    0.0000 C   0  0
   21.6615  -17.8543    0.0000 C   0  0
   22.3760  -18.2668    0.0000 C   0  0
   23.0905  -17.8543    0.0000 C   0  0
   23.0905  -17.0293    0.0000 C   0  0
   22.3760  -16.6168    0.0000 C   0  0
  1  2  1  0
  2  3  1  0
  3  4  1  0
  4  5  1  0
  5  6  1  0
  6  7  2  0
  6  8  1  0
  7  9  1  0
  9 10  1  0
 10 11  1  0
 11 12  1  0
 11 13  1  0
  9 14  2  0
  1 15  1  0
 15 16  1  0
 16 17  2  0
 17 18  1  0
 18  1  2  0
 13 19  1  0
 13 23  2  0
 19 20  2  0
 20 21  1  0
 21 22  2  0
 22 23  1  0
 12 24  1  0
 12 28  2  0
 24 25  2  0
 25 26  1  0
 26 27  2  0
 27 28  1  0
M  END