
  SciTegic02271514372D

 46 50  0  0  0  0            999 V2000
   11.1038  -13.6876    0.0000 S   0  0
   11.5163  -14.3903    0.0000 O   0  0
   11.8064  -13.2751    0.0000 C   0  0
   11.8019  -12.4579    0.0000 C   0  0
   12.5087  -12.0453    0.0000 C   0  0
   13.2200  -12.4500    0.0000 C   0  0
   13.2246  -13.2671    0.0000 C   0  0
   12.5178  -13.6797    0.0000 C   0  0
   13.9227  -12.0374    0.0000 C   0  0
    8.3058  -11.9942    0.0000 O   0  0
    7.5886  -12.3884    0.0000 C   0  0  1  0  0  0
    7.5721  -13.2054    0.0000 C   0  0  2  0  0  0
    8.2728  -13.6282    0.0000 O   0  0
    6.8549  -13.5996    0.0000 C   0  0  1  0  0  0
    6.8384  -14.4166    0.0000 O   0  0
    6.1583  -13.1769    0.0000 C   0  0  2  0  0  0
    5.4383  -13.5712    0.0000 O   0  0
    6.1748  -12.3598    0.0000 C   0  0  2  0  0  0
    6.8879  -11.9656    0.0000 O   0  0
    5.4711  -11.9367    0.0000 C   0  0
    5.4461  -11.1223    0.0000 O   0  0
    4.7366  -13.1524    0.0000 C   0  0  2  0  0  0
    4.7470  -12.3377    0.0000 O   0  0
    4.0453  -11.9189    0.0000 C   0  0  1  0  0  0
    3.3332  -12.3148    0.0000 C   0  0  1  0  0  0
    3.3206  -13.1331    0.0000 C   0  0  1  0  0  0
    4.0224  -13.5519    0.0000 C   0  0  1  0  0  0
    9.0065  -12.4170    0.0000 C   0  0
   10.4202  -12.4455    0.0000 C   0  0
    9.7195  -12.0227    0.0000 C   0  0
    9.7360  -11.2057    0.0000 C   0  0
   10.4532  -10.8115    0.0000 C   0  0
   10.4697   -9.9945    0.0000 C   0  0
   11.1828   -9.6002    0.0000 C   0  0
   11.8835  -10.0230    0.0000 C   0  0
   11.8670  -10.8400    0.0000 C   0  0
   11.1498  -11.2342    0.0000 C   0  0
   11.1333  -12.0513    0.0000 O   0  0
   10.4037  -13.2626    0.0000 N   0  0
    4.0578  -11.1018    0.0000 C   0  0
    3.3565  -10.6824    0.0000 O   0  0
    2.6320  -11.8951    0.0000 O   0  0
    2.6069  -13.5311    0.0000 O   0  0
    4.0109  -14.3690    0.0000 O   0  0
    5.3117  -12.5674    0.0000 H   0  0
   10.6895  -14.3916    0.0000 O   0  0
  1  2  2  0
  3  4  1  0
  4  5  2  0
  5  6  1  0
  6  7  2  0
  7  8  1  0
  3  8  2  0
  1  3  1  0
  6  9  1  0
 11 10  1  1
 11 12  1  0
 12 13  1  6
 12 14  1  0
 14 15  1  1
 14 16  1  0
 16 17  1  6
 16 18  1  0
 18 19  1  0
 18 20  1  1
 20 21  1  0
 11 19  1  0
 22 23  1  0
 23 24  1  0
 24 25  1  0
 25 26  1  0
 26 27  1  0
 22 27  1  0
 17 22  1  0
 29 30  1  0
 30 31  2  0
 31 32  1  0
 32 33  1  0
 33 34  2  0
 34 35  1  0
 35 36  2  0
 36 37  1  0
 32 37  2  0
 37 38  1  0
 29 38  1  0
 29 39  2  0
 28 30  1  0
 10 28  1  0
 24 40  1  1
 40 41  1  0
 25 42  1  1
 26 43  1  1
 27 44  1  6
 22 45  1  6
 39  1  1  0
  1 46  2  0
M  END