
  SciTegic01161211222D

 25 28  0  0  0  0            999 V2000
   -4.8056   -8.6708    0.0000 C   0  0
   -4.8068   -9.4982    0.0000 N   0  0
   -4.0919   -9.9110    0.0000 C   0  0
   -3.3755   -9.4977    0.0000 C   0  0
   -3.3784   -8.6672    0.0000 C   0  0
   -4.0937   -8.2580    0.0000 C   0  0
   -2.6635   -8.2555    0.0000 C   0  0
   -1.9087   -8.5910    0.0000 N   0  0
   -1.3561   -7.9785    0.0000 C   0  0
   -1.7677   -7.2636    0.0000 N   0  0
   -2.5748   -7.4344    0.0000 C   0  0
   -0.5353   -7.9605    0.0000 C   0  0
   -0.1090   -8.6682    0.0000 C   0  0
    0.7150   -8.6519    0.0000 C   0  0
    1.1139   -7.9288    0.0000 C   0  0
    0.6826   -7.2205    0.0000 C   0  0
   -0.1400   -7.2402    0.0000 C   0  0
   -3.1851   -6.8836    0.0000 C   0  0
   -3.0105   -6.0761    0.0000 C   0  0
   -3.6217   -5.5231    0.0000 C   0  0
   -4.4078   -5.7764    0.0000 C   0  0
   -4.5792   -6.5878    0.0000 C   0  0
   -3.9666   -7.1372    0.0000 C   0  0
   -5.0205   -5.2240    0.0000 F   0  0
    1.9387   -7.9110    0.0000 O   0  0
  6  1  1  0
 12 13  2  0
  1  2  2  0
 13 14  1  0
  5  7  1  0
 14 15  2  0
  7  8  1  0
 15 16  1  0
  3  4  2  0
 16 17  2  0
 17 12  1  0
  9 12  1  0
  4  5  1  0
 18 19  2  0
  2  3  1  0
 19 20  1  0
  8  9  1  0
 20 21  2  0
  9 10  2  0
 21 22  1  0
 10 11  1  0
 22 23  2  0
 23 18  1  0
 11 18  1  0
 11  7  2  0
 21 24  1  0
  5  6  2  0
 15 25  1  0
M  END