
  SciTegic12231509382D

 21 23  0  0  0  0            999 V2000
   -1.2248   -0.5107    0.0000 S   0  0
   -0.3998   -0.5107    0.0000 O   0  0
   -2.0498   -0.5107    0.0000 O   0  0
   -1.2248   -1.3357    0.0000 O   0  0
    0.2041   -0.5107    0.0000 N   0  0
   -0.5103    0.7268    0.0000 C   0  0
   -1.2248    0.3143    0.0000 C   0  0
   -0.5103    1.5518    0.0000 C   0  0
    0.2041    0.3143    0.0000 C   0  0
   -1.9393    0.7268    0.0000 C   0  0
   -1.2248    1.9643    0.0000 C   0  0
    0.2041    1.9643    0.0000 C   0  0
    0.9186    0.7268    0.0000 C   0  0
   -1.9393    1.5518    0.0000 C   0  0
    0.9186    1.5518    0.0000 C   0  0
    0.9186   -0.9232    0.0000 C   0  0
    1.6331   -0.5107    0.0000 C   0  0
    0.9186   -1.7482    0.0000 C   0  0
    2.3475   -0.9232    0.0000 C   0  0
    1.6331   -2.1607    0.0000 C   0  0
    2.3475   -1.7482    0.0000 C   0  0
  1  2  1  0
  1  3  2  0
  1  4  2  0
  1  7  1  0
  5  9  1  0
  5 16  1  0
  6  7  1  0
  6  8  2  0
  6  9  1  0
  7 10  2  0
  8 11  1  0
  8 12  1  0
  9 13  2  0
 10 14  1  0
 11 14  2  0
 12 15  2  0
 13 15  1  0
 16 17  2  0
 16 18  1  0
 17 19  1  0
 18 20  2  0
 19 21  2  0
 20 21  1  0
M  END