
  SciTegic06051315212D

 21 23  0  0  0  0            999 V2000
   22.7025  -11.6594    0.0000 N   0  0
   21.9889  -11.2508    0.0000 C   0  0
   23.4160  -11.2467    0.0000 C   0  0
   23.4160  -10.4254    0.0000 C   0  0
   22.7025  -10.0168    0.0000 C   0  0
   21.9889  -10.4254    0.0000 C   0  0
   21.2795  -10.0168    0.0000 C   0  0
   20.5660  -10.4254    0.0000 C   0  0
   20.5660  -11.2508    0.0000 C   0  0
   21.2795  -11.6594    0.0000 C   0  0
   24.1263  -11.6517    0.0000 C   0  0
   24.8342  -11.2411    0.0000 C   0  0
   25.5416  -11.6487    0.0000 C   0  0
   25.5423  -12.4668    0.0000 C   0  0
   24.8298  -12.8755    0.0000 C   0  0
   24.1253  -12.4655    0.0000 C   0  0
   22.7012   -9.1989    0.0000 C   0  0
   23.4089   -8.7903    0.0000 O   0  0
   21.9935   -8.7903    0.0000 O   0  0
   21.2805  -12.4766    0.0000 O   0  0
   20.5733  -12.8861    0.0000 C   0  0
 10  2  1  0
  2  6  2  0
  2  1  1  0
  1  3  2  0
  3  4  1  0
  4  5  2  0
  5  6  1  0
  6  7  1  0
  7  8  2  0
  8  9  1  0
  9 10  2  0
 11 12  2  0
 12 13  1  0
 13 14  2  0
 14 15  1  0
 15 16  2  0
 16 11  1  0
  3 11  1  0
 17 18  1  0
 17 19  2  0
  5 17  1  0
 10 20  1  0
 20 21  1  0
M  END