
  SciTegic05161214222D

 52 56  0  0  0  0            999 V2000
   11.8194  -28.0332    0.0000 N   0  3
   11.8168  -28.8592    0.0000 C   0  0
   12.5269  -29.2721    0.0000 C   0  0
   13.2441  -28.8636    0.0000 C   0  0
   13.2466  -28.0377    0.0000 C   0  0
   12.5320  -27.6202    0.0000 C   0  0
    8.2542  -27.6292    0.0000 C   0  0
    8.2542  -28.4542    0.0000 C   0  0
    8.9662  -28.8625    0.0000 O   0  0
    9.6782  -28.4542    0.0000 C   0  0
    9.6782  -27.6292    0.0000 C   0  0
    8.9662  -27.2125    0.0000 C   0  0
    7.5365  -27.2239    0.0000 S   0  0
    7.1282  -27.9408    0.0000 O   0  0
    7.9531  -27.9360    0.0000 O   0  0
    4.6694  -22.2875    0.0000 C   0  0
    4.6682  -23.1148    0.0000 C   0  0
    5.3831  -23.5277    0.0000 C   0  0
    5.3813  -21.8747    0.0000 C   0  0
    6.0966  -22.2838    0.0000 C   0  0
    6.0974  -23.1107    0.0000 C   0  0
    6.8127  -23.5216    0.0000 N   0  0
    7.5277  -23.1069    0.0000 C   0  0
    7.5230  -22.2769    0.0000 C   0  0
    6.8071  -21.8697    0.0000 C   0  0
    8.2438  -23.5166    0.0000 C   0  0
    6.8027  -21.0447    0.0000 C   0  0
    5.3850  -24.3527    0.0000 O   0  0
    6.1004  -24.7635    0.0000 C   0  0
    6.1023  -25.5885    0.0000 C   0  0
    5.3862  -25.9983    0.0000 C   0  0
    5.3878  -26.8226    0.0000 C   0  0
    6.1037  -27.2342    0.0000 C   0  0
    6.8196  -26.8156    0.0000 C   0  0
    6.8145  -25.9928    0.0000 C   0  0
    4.6721  -25.5851    0.0000 Cl  0  0
    7.5262  -25.5754    0.0000 Cl  0  0
    8.2485  -26.8073    0.0000 N   0  0
    9.6774  -26.7989    0.0000 C   0  0
   10.3932  -27.2092    0.0000 N   0  0
    9.6749  -25.9739    0.0000 O   0  0
   10.3921  -28.0342    0.0000 C   0  0
   11.1037  -28.4444    0.0000 C   0  0
   11.8188  -27.2073    0.0000 C   0  0
   11.1026  -26.7925    0.0000 C   0  0
   11.2847  -25.8988    0.0000 F   0  0
   11.9991  -25.4863    0.0000 C   0  0
   12.7136  -25.8988    0.0000 F   0  0
   11.9930  -26.3071    0.0000 F   0  0
   12.0022  -24.6613    0.0000 C   0  0
   12.7182  -24.2515    0.0000 O   0  5
   11.2893  -24.2461    0.0000 O   0  0
 22 23  2  0
 10 11  1  0
 23 24  1  0
 11 12  1  0
 24 25  2  0
 25 20  1  0
 14 13  2  0
 23 26  1  0
 13 15  2  0
 25 27  1  0
  5  6  1  0
 18 28  1  0
  7  8  1  0
 28 29  1  0
 29 30  1  0
  1  2  1  0
 30 31  2  0
  1  6  1  0
 31 32  1  0
 16 17  2  0
 32 33  2  0
  2  3  1  0
 33 34  1  0
 17 18  1  0
 34 35  2  0
 35 30  1  0
 18 21  2  0
 31 36  1  0
  3  4  1  0
 35 37  1  0
 34 13  1  0
 20 19  2  0
 13 38  1  0
 38 12  1  0
 19 16  1  0
 12 39  1  0
  4  5  1  0
 39 40  1  0
  7 12  1  0
 39 41  2  0
 40 42  1  0
 20 21  1  0
  8  9  1  0
 21 22  1  0
  9 10  1  0
 40 45  1  0
 42 43  1  0
 43  1  1  0
  1 44  1  0
 44 45  1  0
 46 47  1  0
 47 49  1  0
 47 50  1  0
 47 48  1  0
 50 51  1  0
 50 52  2  0
M  CHG  2   1   1  51  -1
M  END