
  SciTegic09081514192D

 55 59  0  0  0  0            999 V2000
    4.6507   -1.8062    0.0000 N   0  0
    3.6552   -2.9294    0.0000 C   0  0  2  0  0  0
    3.3299   -5.2503    0.0000 O   0  0
    4.1277   -4.3539    0.0000 C   0  0
    2.1855   -2.6254    0.0000 C   0  0
    2.5889    0.0182    0.0000 C   0  0
    1.7138   -1.2033    0.0000 C   0  0
    1.7138    1.2033    0.0000 N   0  0
    0.2917   -0.7475    0.0000 C   0  0
    0.2917    0.7475    0.0000 C   0  0
   -1.0028    1.5132    0.0000 C   0  0
   -2.3155    0.7475    0.0000 C   0  0
   -2.3155   -0.7475    0.0000 C   0  0
   -1.0028   -1.5132    0.0000 C   0  0
    5.5974   -4.6579    0.0000 N   0  0
    6.0699   -6.0824    0.0000 C   0  0  1  0  0  0
    8.3374   -5.4901    0.0000 O   0  0
    7.5396   -6.3865    0.0000 C   0  0
    5.0744   -7.2056    0.0000 C   0  0
    4.5551   -9.7536    0.0000 C   0  0
    5.5484   -8.6296    0.0000 C   0  0
    7.0185   -8.9280    0.0000 C   0  0
    7.4952  -10.3502    0.0000 C   0  0
    6.5018  -11.4742    0.0000 C   0  0
    5.0318  -11.1759    0.0000 C   0  0
   14.4207   -6.4882    0.0000 N   0  0
   15.4208   -5.3691    0.0000 C   0  0
   15.0454   -4.2294    0.0000 N   0  0
   16.5956   -5.6135    0.0000 N   0  0
    8.0120   -7.8110    0.0000 N   0  0
    9.4817   -8.1150    0.0000 C   0  0  2  0  0  0
    9.1564  -10.4359    0.0000 O   0  0
    9.9542   -9.5395    0.0000 C   0  0
   10.4818   -6.9959    0.0000 C   0  0
   11.9512   -7.3016    0.0000 C   0  0
   12.9513   -6.1825    0.0000 C   0  0
   11.4239   -9.8435    0.0000 N   0  0
   11.8964  -11.2681    0.0000 C   0  0  2  0  0  0
    4.1767   -0.3822    0.0000 C   0  0
    4.9726    0.5158    0.0000 O   0  0
    3.1970   -0.1817    0.0000 C   0  0
    6.8832  -12.6120    0.0000 I   0  0
   10.9009  -12.3912    0.0000 C   0  0
    9.7253  -12.1506    0.0000 N   0  0
   11.2799  -13.5298    0.0000 O   0  0
   13.3661  -11.5721    0.0000 C   0  0
   13.8386  -12.9966    0.0000 C   0  0
   12.9564  -14.1967    0.0000 C   0  0
   13.8310  -15.3822    0.0000 S   0  0
   15.2540  -13.4321    0.0000 C   0  0
   15.2533  -14.9271    0.0000 C   0  0
   16.5474  -15.6935    0.0000 C   0  0
   17.8604  -14.9285    0.0000 C   0  0
   17.8612  -13.4334    0.0000 C   0  0
   16.5489  -12.6670    0.0000 C   0  0
  4 15  1  0
 18 30  1  0
 33 37  1  0
  1  2  1  0
  2  4  1  0
  4  3  2  0
  2  5  1  6
  5  7  1  0
  6  7  2  0
  7  9  1  0
  8  6  1  0
 10  8  1  0
  9 10  2  0
 10 11  1  0
 11 12  2  0
 12 13  1  0
 13 14  2  0
 14  9  1  0
 15 16  1  0
 16 18  1  0
 18 17  2  0
 16 19  1  1
 19 21  1  0
 20 21  2  0
 21 22  1  0
 22 23  2  0
 23 24  1  0
 24 25  2  0
 25 20  1  0
 26 27  1  0
 27 28  1  0
 27 29  2  0
 30 31  1  0
 31 33  1  0
 33 32  2  0
 31 34  1  1
 34 35  1  0
 35 36  1  0
 36 26  1  0
 37 38  1  0
  1 39  1  0
 39 40  2  0
 39 41  1  0
 24 42  1  0
 38 43  1  0
 43 44  1  0
 43 45  2  0
 38 46  1  1
 46 47  1  0
 47 48  2  0
 48 49  1  0
 49 51  1  0
 50 47  1  0
 50 51  2  0
 51 52  1  0
 52 53  2  0
 53 54  1  0
 54 55  2  0
 55 50  1  0
M  END