
          11280715112D 1   1.00000     0.00000     0

 14 14  0     0  0            999 V2000
    4.8250   -2.4792    0.0000 C   0  0  0  0  0  0           0  0  0
    4.1042   -2.8917    0.0000 C   0  0  0  0  0  0           0  0  0
    4.8250   -1.6500    0.0000 C   0  0  0  0  0  0           0  0  0
    5.5417   -2.8917    0.0000 C   0  0  3  0  0  0           0  0  0
    3.3917   -2.4792    0.0000 C   0  0  0  0  0  0           0  0  0
    4.1042   -1.2375    0.0000 C   0  0  0  0  0  0           0  0  0
    3.3917   -1.6500    0.0000 C   0  0  0  0  0  0           0  0  0
    4.1042   -3.7167    0.0000 O   0  0  0  0  0  0           0  0  0
    6.2542   -1.6500    0.0000 N   0  0  0  0  0  0           0  0  0
    5.5417   -3.7167    0.0000 O   0  0  0  0  0  0           0  0  0
    4.1042   -0.4125    0.0000 O   0  0  0  0  0  0           0  0  0
    6.2542   -2.4750    0.0000 C   0  0  0  0  0  0           0  0  0
    3.3917   -4.1292    0.0000 C   0  0  0  0  0  0           0  0  0
    4.8167    0.0000    0.0000 C   0  0  0  0  0  0           0  0  0
  2  1  2  0     0  0
  3  1  1  0     0  0
  4  1  1  0     0  0
  5  2  1  0     0  0
  6  3  2  0     0  0
  7  6  1  0     0  0
  8  2  1  0     0  0
  9 12  1  0     0  0
 10  4  1  0     0  0
 11  6  1  0     0  0
 12  4  1  0     0  0
 13  8  1  0     0  0
 14 11  1  0     0  0
  5  7  2  0     0  0
M  END