
  SciTegic12201110432D

  7  7  0  0  0  0            999 V2000
   -0.7361   -0.6344    0.0000 N   0  0
   -0.7361    0.1906    0.0000 C   0  0
   -0.0217    0.6031    0.0000 C   0  0
    0.6928    0.1906    0.0000 C   0  0
    0.6928   -0.6344    0.0000 C   0  0
   -0.0217   -1.0469    0.0000 C   0  0
   -0.0217    1.4281    0.0000 N   0  0
  2  1  1  0
  6  1  2  0
  2  3  2  0
  3  4  1  0
  3  7  1  0
  4  5  2  0
  5  6  1  0
M  END