
  SciTegic09081514182D

 75 82  0  0  0  0            999 V2000
   -5.2200   14.9946    0.0000 C   0  0
   -6.2577   14.3920    0.0000 O   0  0
   -3.9186   14.2470    0.0000 C   0  0
   -3.9144   12.7462    0.0000 C   0  0
   -2.6130   11.9986    0.0000 C   0  0
   -2.6088   10.4978    0.0000 C   0  0
   -1.3075    9.7502    0.0000 C   0  0
   -1.3033    8.2493    0.0000 N   0  0
   -0.0019    7.5017    0.0000 C   0  0
    1.0358    8.1043    0.0000 O   0  0
    0.0023    6.0009    0.0000 C   0  0
    1.3019    5.2519    0.0000 C   0  0
    1.3030    3.7519    0.0000 C   0  0
    0.0046    3.0009    0.0000 C   0  0
   -1.2951    3.7499    0.0000 C   0  0
   -1.2962    5.2499    0.0000 C   0  0
    0.0000    1.5002    0.0000 C   0  0
    0.0000   -1.5002    0.0000 O   0  0
   -1.2989   -0.7501    0.0000 C   0  0
   -1.2989    0.7501    0.0000 C   0  0
   -2.5978    1.5002    0.0000 C   0  0
   -3.8968    0.7501    0.0000 C   0  0
   -3.8968   -0.7501    0.0000 C   0  0
   -2.5978   -1.5002    0.0000 C   0  0
    1.2806    0.7501    0.0000 C   0  0
    1.2806   -0.7501    0.0000 C   0  0
    2.5978   -1.5002    0.0000 C   0  0
    3.8968   -0.7501    0.0000 C   0  0
    3.8968    0.7501    0.0000 C   0  0
    2.5978    1.5002    0.0000 C   0  0
    2.6048    3.0051    0.0000 C   0  0
    3.6428    3.6073    0.0000 O   0  0
    2.6073    2.0051    0.0000 O   0  0
    4.9360   -1.3500    0.0000 O   0  0
   -5.2242   16.4954    0.0000 N   0  0
   -4.9360   -1.3500    0.0000 O   0  0
  -25.9668   26.3909    0.0000 C   0  0
  -26.4334   24.9446    0.0000 C   0  0
  -25.4357   23.8312    0.0000 C   0  0
  -23.9470   24.1370    0.0000 C   0  0
  -24.4917   26.6845    0.0000 C   0  0
  -23.4940   25.5711    0.0000 C   0  0
  -22.1495   26.1920    0.0000 C   0  0
  -22.2942   27.6744    0.0000 C   0  0
  -23.7368   27.9730    0.0000 N   0  0
  -21.4016   28.4765    0.0000 O   0  0
  -20.8466   25.4471    0.0000 N   0  0
  -19.5495   26.2021    0.0000 N   0  0
  -18.2466   25.4572    0.0000 C   0  0
  -16.9496   26.2122    0.0000 C   0  0
  -18.2420   24.2572    0.0000 O   0  0
  -15.6467   25.4673    0.0000 N   0  0
  -14.3496   26.2223    0.0000 S   0  0
  -15.6409   23.9665    0.0000 C   0  0
  -13.0467   25.4774    0.0000 C   0  0
  -14.3399   23.2197    0.0000 C   0  0
  -14.3361   21.7197    0.0000 C   0  0
  -15.6333   20.9664    0.0000 C   0  0
  -16.9342   21.7131    0.0000 C   0  0
  -16.9380   23.2131    0.0000 C   0  0
  -11.7508   26.2328    0.0000 C   0  0
  -10.4487   25.4883    0.0000 C   0  0
  -10.4423   23.9883    0.0000 C   0  0
  -11.7382   23.2328    0.0000 C   0  0
  -13.0404   23.9774    0.0000 C   0  0
   -9.1409   23.2407    0.0000 C   0  0
   -9.1367   21.7398    0.0000 C   0  0
   -7.8353   20.9922    0.0000 C   0  0
   -7.8311   19.4914    0.0000 N   0  0
   -6.7976   21.5948    0.0000 O   0  0
  -14.3543   27.4223    0.0000 O   0  0
  -15.3911   26.8184    0.0000 O   0  0
  -15.6303   19.7664    0.0000 Cl  0  0
   -6.5298   18.7438    0.0000 C   0  0
   -6.5256   17.2430    0.0000 C   0  0
  1  2  2  0
  1  3  1  0
  3  4  1  0
  4  5  1  0
  5  6  1  0
  6  7  1  0
  7  8  1  0
  8  9  1  0
  9 10  2  0
  9 11  1  0
 11 12  2  0
 12 13  1  0
 13 14  2  0
 14 15  1  0
 15 16  2  0
 16 11  1  0
 17 20  1  0
 17 25  2  0
 19 18  1  0
 18 26  1  0
 14 17  1  0
 19 20  2  0
 20 21  1  0
 21 22  2  0
 22 23  1  0
 23 24  2  0
 24 19  1  0
 25 26  1  0
 25 30  1  0
 26 27  2  0
 27 28  1  0
 28 29  1  0
 29 30  2  0
 13 31  1  0
 31 32  2  0
 31 33  1  0
 28 34  2  0
  1 35  1  0
 23 36  1  0
 37 38  2  0
 38 39  1  0
 39 40  2  0
 40 42  1  0
 41 37  1  0
 41 42  2  0
 42 43  1  0
 43 44  1  0
 44 45  1  0
 45 41  1  0
 44 46  2  0
 43 47  2  0
 47 48  1  0
 48 49  1  0
 49 50  1  0
 49 51  2  0
 50 52  1  0
 52 53  1  0
 52 54  1  0
 53 55  1  0
 54 56  2  0
 56 57  1  0
 57 58  2  0
 58 59  1  0
 59 60  2  0
 60 54  1  0
 55 61  2  0
 61 62  1  0
 62 63  2  0
 63 64  1  0
 64 65  2  0
 65 55  1  0
 63 66  1  0
 66 67  1  0
 67 68  1  0
 68 69  1  0
 68 70  2  0
 53 71  2  0
 53 72  2  0
 58 73  1  0
 69 74  1  0
 74 75  1  0
 75 35  1  0
M  END