
  CDK    9/16/09,10:0

 28 30  0  0  0  0  0  0  0  0999 V2000
   17.1274   -4.1769    0.0000 N   0  0  0  0  0  0  0  0  0  0  0  0
   16.7230   -3.4605    0.0000 C   0  0  0  0  0  0  0  0  0  0  0  0
   15.9016   -3.4551    0.0000 C   0  0  0  0  0  0  0  0  0  0  0  0
   15.4822   -4.1660    0.0000 C   0  0  0  0  0  0  0  0  0  0  0  0
   15.8905   -4.8840    0.0000 C   0  0  0  0  0  0  0  0  0  0  0  0
   16.7180   -4.8911    0.0000 C   0  0  0  0  0  0  0  0  0  0  0  0
   17.9524   -4.1797    0.0000 C   0  0  0  0  0  0  0  0  0  0  0  0
   18.3626   -4.8954    0.0000 C   0  0  0  0  0  0  0  0  0  0  0  0
   18.3673   -3.4666    0.0000 C   0  0  0  0  0  0  0  0  0  0  0  0
    9.2473   -4.6015    0.0000 C   0  0  0  0  0  0  0  0  0  0  0  0
    9.2460   -5.4291    0.0000 C   0  0  0  0  0  0  0  0  0  0  0  0
    9.9590   -5.8419    0.0000 C   0  0  0  0  0  0  0  0  0  0  0  0
   10.6783   -5.4286    0.0000 C   0  0  0  0  0  0  0  0  0  0  0  0
   10.6752   -4.5975    0.0000 C   0  0  0  0  0  0  0  0  0  0  0  0
    9.9570   -4.1887    0.0000 C   0  0  0  0  0  0  0  0  0  0  0  0
   11.3876   -4.1814    0.0000 C   0  0  0  0  0  0  0  0  0  0  0  0
   12.1041   -4.5904    0.0000 C   0  0  0  0  0  0  0  0  0  0  0  0
   12.1970   -5.4103    0.0000 C   0  0  0  0  0  0  0  0  0  0  0  0
   13.0048   -5.5778    0.0000 N   0  0  0  0  0  0  0  0  0  0  0  0
   13.4134   -4.8617    0.0000 C   0  0  0  0  0  0  0  0  0  0  0  0
   12.8587   -4.2511    0.0000 N   0  0  0  0  0  0  0  0  0  0  0  0
   13.0266   -3.4433    0.0000 C   0  0  0  0  0  0  0  0  0  0  0  0
   14.2384   -4.8691    0.0000 O   0  0  0  0  0  0  0  0  0  0  0  0
   11.3835   -3.3566    0.0000 O   0  0  0  0  0  0  0  0  0  0  0  0
   14.6573   -4.1584    0.0000 C   0  0  0  0  0  0  0  0  0  0  0  0
    8.5310   -5.8405    0.0000 C   0  0  0  0  0  0  0  0  0  0  0  0
    7.8172   -5.4270    0.0000 C   0  0  0  0  0  0  0  0  0  0  0  0
    8.5298   -6.6655    0.0000 C   0  0  0  0  0  0  0  0  0  0  0  0
  1  7  1  0  0  0  0 
 14 15  2  0  0  0  0 
 15 10  1  0  0  0  0 
 14 16  1  0  0  0  0 
  7  8  1  0  0  0  0 
 16 17  1  0  0  0  0 
 17 18  2  0  0  0  0 
  1  6  1  0  0  0  0 
  7  9  1  0  0  0  0 
  2  3  1  0  0  0  0 
  3  4  1  0  0  0  0 
 18 19  1  0  0  0  0 
 19 20  2  0  0  0  0 
 20 21  1  0  0  0  0 
 21 17  1  0  0  0  0 
 10 11  2  0  0  0  0 
 21 22  1  0  0  0  0 
  4  5  1  0  0  0  0 
 20 23  1  0  0  0  0 
 11 12  1  0  0  0  0 
 16 24  2  0  0  0  0 
  5  6  1  0  0  0  0 
 23 25  1  0  0  0  0 
 25  4  1  0  0  0  0 
 12 13  2  0  0  0  0 
 11 26  1  0  0  0  0 
  1  2  1  0  0  0  0 
 26 27  1  0  0  0  0 
 13 14  1  0  0  0  0 
 26 28  1  0  0  0  0 
M  END