
  SciTegic12091611432D

 78 83  0  0  0  0            999 V2000
    5.2167    8.5598    0.0000 N   0  0
    5.9325    7.2407    0.0000 C   0  0
    5.7246    4.9063    0.0000 O   0  0
    5.1501    5.9599    0.0000 C   0  0
    3.6497    5.9961    0.0000 N   0  0
    2.8618    4.7061    0.0000 C   0  0  2  0  0  0
    1.8098    6.4592    0.0000 O   0  0
    1.4860    5.3037    0.0000 C   0  0
    4.0254    3.7595    0.0000 C   0  0
    4.8904    2.5340    0.0000 C   0  0
    5.9559    3.0861    0.0000 O   0  0
    0.0000    5.5080    0.0000 N   0  0
   -1.4861    5.3037    0.0000 C   0  0  2  0  0  0
   -3.4854    5.7314    0.0000 O   0  0
   -2.8619    4.7061    0.0000 C   0  0
   -1.8910    6.7600    0.0000 C   0  0
    0.6275    7.5935    0.0000 N   0  0
    1.2978    8.9354    0.0000 C   0  0
    0.2287    9.9875    0.0000 N   0  0
   -1.1024    9.2959    0.0000 C   0  0
   -0.8405    7.8318    0.0000 C   0  0
   -4.0254    3.7595    0.0000 N   0  0
   -4.8904    2.5340    0.0000 C   0  0  1  0  0  0
   -6.5677    1.3647    0.0000 O   0  0
   -5.3928    1.1206    0.0000 C   0  0
  -10.3124   -0.8979    0.0000 N   0  0
  -11.7276   -1.3977    0.0000 C   0  0
  -11.9469   -2.5775    0.0000 N   0  0
  -12.6399   -0.6182    0.0000 N   0  0
   -5.4951   -0.3759    0.0000 N   0  0
   -5.1899   -1.8445    0.0000 C   0  0  2  0  0  0
   -5.4802   -3.8684    0.0000 O   0  0
   -4.4998   -3.1763    0.0000 C   0  0
   -6.6152   -2.3479    0.0000 C   0  0
   -7.7562   -1.3730    0.0000 C   0  0
   -9.1714   -1.8728    0.0000 C   0  0
   -3.4760   -4.2726    0.0000 N   0  0
   -2.1944   -5.0520    0.0000 C   0  0  2  0  0  0
   -0.9134   -6.6455    0.0000 O   0  0
   -0.7500   -5.4567    0.0000 C   0  0
   -2.7993   -6.4372    0.0000 C   0  0
   -5.2830   -5.4950    0.0000 C   0  0
   -4.2906   -6.6057    0.0000 C   0  0
   -6.6234   -6.1062    0.0000 N   0  0
   -5.0087   -7.9009    0.0000 C   0  0
   -6.4714   -7.5918    0.0000 C   0  0
   -7.4882   -8.7000    0.0000 C   0  0
   -7.0104  -10.1426    0.0000 C   0  0
   -5.5477  -10.4517    0.0000 C   0  0
   -4.5271   -9.3257    0.0000 C   0  0
    0.7500   -5.4567    0.0000 N   0  0
    2.1944   -5.0520    0.0000 C   0  0  2  0  0  0
    3.9917   -6.5719    0.0000 O   0  0
    2.7993   -6.4372    0.0000 C   0  0
    3.4760   -4.2726    0.0000 C   0  0
    2.0867   -7.4027    0.0000 N   0  0
    4.4998   -3.1763    0.0000 C   0  0
    5.1899   -1.8445    0.0000 C   0  0
    5.4951   -0.3759    0.0000 C   0  0
    5.3928    1.1206    0.0000 N   0  0
    7.4329    7.2045    0.0000 C   0  0
    8.2152    8.4853    0.0000 C   0  0
    9.7156    8.4491    0.0000 C   0  0
   10.3411    9.4732    0.0000 C   0  0
    6.0005    9.8398    0.0000 C   0  0
    5.4282   10.8945    0.0000 O   0  0
    7.2001    9.8084    0.0000 C   0  0
   -6.2312    3.2320    0.0000 C   0  0
   -6.2975    4.7314    0.0000 C   0  0
   -7.6341    5.4375    0.0000 C   0  0
   -5.1079    7.0455    0.0000 C   0  0
   -5.0334    5.5345    0.0000 C   0  0
   -6.4356    7.7372    0.0000 C   0  0
   -7.6987    6.9331    0.0000 C   0  0
   -9.0264    7.6248    0.0000 C   0  0
   -9.0910    9.1204    0.0000 C   0  0
   -7.8279    9.9245    0.0000 C   0  0
   -6.5002    9.2328    0.0000 C   0  0
  4  5  1  0
  8 12  1  0
 15 22  1  0
 25 30  1  0
 33 37  1  0
 40 51  1  0
 54 56  1  0
  1  2  1  0
  2  4  1  0
  4  3  2  0
  6  5  1  1
  6  8  1  0
  8  7  2  0
  6  9  1  0
  9 10  1  0
 10 11  2  0
 12 13  1  0
 13 15  1  0
 15 14  2  0
 13 16  1  6
 16 21  1  0
 17 18  1  0
 18 19  2  0
 19 20  1  0
 20 21  2  0
 21 17  1  0
 22 23  1  0
 23 25  1  0
 25 24  2  0
 26 27  1  0
 27 28  1  0
 27 29  2  0
 30 31  1  0
 31 33  1  0
 33 32  2  0
 31 34  1  6
 34 35  1  0
 35 36  1  0
 36 26  1  0
 37 38  1  0
 38 40  1  0
 40 39  2  0
 38 41  1  6
 41 43  1  0
 42 43  2  0
 43 45  1  0
 44 42  1  0
 46 44  1  0
 45 46  2  0
 46 47  1  0
 47 48  2  0
 48 49  1  0
 49 50  2  0
 50 45  1  0
 51 52  1  0
 52 54  1  1
 54 53  2  0
 52 55  1  0
 55 57  1  0
 57 58  1  0
 58 59  1  0
 59 60  1  0
 10 60  1  0
  2 61  1  0
 61 62  1  0
 62 63  1  0
 63 64  1  0
  1 65  1  0
 65 66  2  0
 65 67  1  0
 23 68  1  1
 68 69  1  0
 69 70  2  0
 70 74  1  0
 73 71  1  0
 71 72  2  0
 72 69  1  0
 73 74  1  0
 74 75  2  0
 75 76  1  0
 76 77  2  0
 77 78  1  0
 78 73  2  0
M  END