
  SciTegic10301317112D

 29 29  0  0  0  0            999 V2000
    0.2042   -2.4000    0.0000 S   0  0
    3.4917   -2.3875    0.0000 C   0  0
    1.0250   -2.4000    0.0000 C   0  0
    9.0125   -5.7500    0.0000 C   0  0
    7.7667   -5.0417    0.0000 N   0  0
    7.2875   -4.3792    0.0000 C   0  0
    3.9125   -3.1000    0.0000 N   0  0
    0.2000   -3.2250    0.0000 O   0  0
    0.2042   -1.5750    0.0000 O   0  0
    8.5917   -5.0375    0.0000 C   0  0  2  0  0  0
    5.1542   -3.8042    0.0000 C   0  0
    2.6667   -2.3917    0.0000 C   0  0
   -0.6250   -2.3917    0.0000 N   0  0
    5.9792   -3.8000    0.0000 N   0  0
    3.9042   -1.6667    0.0000 O   0  0
    8.6042   -6.4667    0.0000 O   0  0
    7.6167   -3.6250    0.0000 O   0  0
    4.7417   -4.5167    0.0000 O   0  0
    1.4292   -1.6875    0.0000 C   0  0
    1.4417   -3.1125    0.0000 C   0  0
    2.2542   -3.1042    0.0000 C   0  0
    2.2500   -1.6792    0.0000 C   0  0
    4.7375   -3.0917    0.0000 C   0  0
    6.4667   -4.4667    0.0000 C   0  0
    9.8375   -5.7417    0.0000 O   0  0
    9.0042   -4.3167    0.0000 C   0  0
   10.2375   -3.6000    0.0000 S   0  0
    9.8292   -4.3167    0.0000 C   0  0
   11.0625   -3.5917    0.0000 C   0  0
  2 12  1  0
  3  1  1  0
  4 10  1  0
  5  6  1  0
  6 24  1  0
  7  2  1  0
  8  1  2  0
  9  1  2  0
 10  5  1  0
 11 23  1  0
 12 21  2  0
 13  1  1  0
 14 11  1  0
 15  2  2  0
 16  4  2  0
 17  6  2  0
 18 11  2  0
 19  3  1  0
 20  3  2  0
 21 20  1  0
 22 19  2  0
 23  7  1  0
 24 14  1  0
 25  4  1  0
 10 26  1  6
 27 28  1  0
 28 26  1  0
 29 27  1  0
 12 22  1  0
M  END