
  SciTegic01161211222D

 30 32  0  0  0  0            999 V2000
   -4.7412  -22.4150    0.0000 C   0  0
   -4.7423  -23.2422    0.0000 C   0  0
   -4.0280  -23.6550    0.0000 C   0  0
   -4.0297  -22.0022    0.0000 C   0  0
   -3.3148  -22.4116    0.0000 C   0  0
   -3.3115  -23.2443    0.0000 C   0  0
   -2.5928  -23.6556    0.0000 O   0  0
   -1.8727  -23.2387    0.0000 C   0  0
   -1.8759  -22.4061    0.0000 C   0  0  1  0  0  0
   -2.5993  -21.9902    0.0000 O   0  0
   -1.1626  -21.9915    0.0000 C   0  0
   -0.4469  -22.4019    0.0000 N   0  0
    0.2664  -21.9874    0.0000 C   0  0
    0.9820  -22.3978    0.0000 C   0  0
    1.6952  -21.9832    0.0000 O   0  0
    2.4109  -22.3937    0.0000 C   0  0
    2.4083  -23.2176    0.0000 C   0  0
    3.1231  -23.6280    0.0000 C   0  0
    3.8374  -23.2134    0.0000 C   0  0
    1.6936  -23.6298    0.0000 O   0  0
    1.6934  -24.4549    0.0000 C   0  0
    3.1169  -21.9775    0.0000 C   0  0
    3.8303  -22.3871    0.0000 C   0  0
    3.1122  -21.1525    0.0000 C   0  0
    3.8241  -20.7381    0.0000 C   0  0
    3.8197  -19.9139    0.0000 C   0  0
    3.1023  -19.5046    0.0000 C   0  0
    2.3879  -19.9256    0.0000 C   0  0
    2.3958  -20.7485    0.0000 C   0  0
   -0.8522  -21.4927    0.0000 Cl  0  0
 13 14  1  0
  2  3  1  0
 14 15  1  0
  3  6  2  0
 15 16  1  0
 16 17  2  0
  5  4  2  0
 17 18  1  0
  5 10  1  0
 18 19  2  0
 19 23  1  0
 22 16  1  0
  6  7  1  0
 17 20  1  0
  7  8  1  0
 20 21  1  0
 22 23  2  0
  8  9  1  0
  9 10  1  0
  4  1  1  0
 22 24  1  0
  9 11  1  1
 24 25  2  0
  5  6  1  0
 25 26  1  0
 11 12  1  0
 26 27  2  0
  1  2  2  0
 27 28  1  0
 12 13  1  0
 28 29  2  0
 29 24  1  0
M  END