
  SciTegic11261411072D

 22 25  0  0  0  0            999 V2000
    1.9814   -1.0494    0.0000 Br  0  0
   -2.3055   -0.2244    0.0000 N   0  0
   -1.5910   -1.4619    0.0000 N   0  0
   -3.0901    0.0306    0.0000 N   0  0
   -3.0901   -1.3043    0.0000 N   0  0
   -3.5750   -0.6369    0.0000 N   0  0
   -1.5910    0.1881    0.0000 C   0  0
   -2.3055   -1.0494    0.0000 C   0  0
   -0.8765   -1.0494    0.0000 C   0  0
   -0.8765   -0.2244    0.0000 C   0  0
   -1.5910    1.0131    0.0000 C   0  0
   -0.1621   -1.4619    0.0000 C   0  0
    0.5524   -1.0494    0.0000 C   0  0
   -2.3055    1.4256    0.0000 C   0  0
   -0.8765    1.4256    0.0000 C   0  0
   -0.1621   -2.2869    0.0000 C   0  0
    1.2669   -1.4619    0.0000 C   0  0
    0.5524   -2.6994    0.0000 C   0  0
   -2.3055    2.2506    0.0000 C   0  0
   -0.8765    2.2506    0.0000 C   0  0
    1.2669   -2.2869    0.0000 C   0  0
   -1.5910    2.6631    0.0000 C   0  0
  1 17  1  0
  2  4  1  0
  2  7  1  0
  2  8  1  0
  3  8  1  0
  3  9  1  0
  4  6  2  0
  5  6  1  0
  5  8  2  0
  7 10  1  0
  7 11  1  0
  9 10  1  0
  9 12  1  0
 11 14  2  0
 11 15  1  0
 12 13  2  0
 12 16  1  0
 13 17  1  0
 14 19  1  0
 15 20  2  0
 16 18  2  0
 17 21  2  0
 18 21  1  0
 19 22  2  0
 20 22  1  0
M  END