
  SciTegic10011413212D

 40 42  0  0  0  0            999 V2000
   10.1484   -4.0166    0.0000 C   0  0
    9.4351   -4.4333    0.0000 C   0  0
    8.7212   -4.0215    0.0000 C   0  0
    8.7208   -3.1957    0.0000 C   0  0
    9.4403   -2.7833    0.0000 C   0  0
   10.1513   -3.1975    0.0000 C   0  0
    8.0068   -2.7822    0.0000 N   0  0
    7.2918   -3.1938    0.0000 C   0  0
    6.5779   -2.7803    0.0000 C   0  0
    7.2907   -4.0188    0.0000 O   0  0
    5.8628   -3.1919    0.0000 C   0  0
    5.1490   -2.7785    0.0000 C   0  0
    4.4339   -3.1900    0.0000 C   0  0
    3.7201   -2.7766    0.0000 C   0  0
    3.0050   -3.1880    0.0000 C   0  0
    2.2911   -2.7746    0.0000 C   0  0
    1.5761   -3.1861    0.0000 N   0  0
    2.2922   -1.9496    0.0000 O   0  0
    0.8622   -2.7727    0.0000 O   0  0
   13.0035   -5.6666    0.0000 N   0  0
   13.7156   -5.2583    0.0000 C   0  0  2  0  0  0
   13.7156   -4.4333    0.0000 C   0  0
   13.0035   -4.0166    0.0000 C   0  0  2  0  0  0
   12.2915   -5.2583    0.0000 C   0  0
   12.2915   -4.4333    0.0000 C   0  0
   11.5810   -4.0230    0.0000 C   0  0
   10.8659   -4.4333    0.0000 C   0  0
   10.8659   -5.2583    0.0000 C   0  0
   11.5810   -5.6730    0.0000 C   0  0
   13.0035   -6.4916    0.0000 C   0  0
   12.2891   -6.9041    0.0000 O   0  0
   13.7180   -6.9041    0.0000 C   0  0
   14.4294   -5.6718    0.0000 C   0  0
   13.0035   -3.1917    0.0000 N   0  0
   13.7180   -2.7792    0.0000 C   0  0
   13.7180   -1.9542    0.0000 O   0  0
   14.4325   -3.1917    0.0000 O   0  0
   15.1469   -2.7792    0.0000 C   0  0
   15.8614   -3.1917    0.0000 C   0  0
   15.1469   -1.9542    0.0000 C   0  0
  1  2  2  0
  2  3  1  0
  3  4  2  0
  4  5  1  0
  5  6  2  0
  6  1  1  0
  4  7  1  0
  7  8  1  0
  8  9  1  0
  8 10  2  0
  9 11  1  0
 11 12  1  0
 12 13  1  0
 13 14  1  0
 14 15  1  0
 15 16  1  0
 16 17  1  0
 16 18  2  0
 17 19  1  0
 25 23  1  0
 24 20  1  0
 21 20  1  0
 21 22  1  0
 22 23  1  0
 24 25  1  0
 24 29  2  0
 25 26  2  0
 26 27  1  0
 27 28  2  0
 28 29  1  0
 20 30  1  0
 30 31  2  0
 30 32  1  0
 21 33  1  6
 23 34  1  6
 27  1  1  0
 34 35  1  0
 35 36  2  0
 35 37  1  0
 37 38  1  0
 38 39  1  0
 38 40  1  0
M  END