
  SciTegic02101214292D

 35 39  0  0  0  0            999 V2000
    2.9729    0.1390    0.0000 C   0  0
    3.4578    0.8064    0.0000 O   0  0
    2.1524    0.2252    0.0000 N   0  0
    1.6004   -0.3879    0.0000 C   0  0
    0.8467   -0.0523    0.0000 C   0  0  2  0  0  0
    0.9329    0.7682    0.0000 C   0  0
    1.7399    0.9397    0.0000 C   0  0
    0.1322   -0.4648    0.0000 N   0  0
   -0.5823   -0.0523    0.0000 C   0  0
   -1.2967   -0.4648    0.0000 C   0  0
   -2.0112   -0.0523    0.0000 N   0  0
   -2.7257   -0.4648    0.0000 C   0  0
   -2.7257   -1.2898    0.0000 C   0  0
   -3.4401   -1.7023    0.0000 C   0  0
   -4.1546   -1.2898    0.0000 C   0  0
   -4.1546   -0.4648    0.0000 C   0  0
   -3.4401   -0.0523    0.0000 N   0  0
   -2.0112    0.7727    0.0000 C   0  0
   -2.7257    1.1852    0.0000 C   0  0
   -3.4401    0.7727    0.0000 C   0  0
   -4.1546    1.1852    0.0000 C   0  0
   -4.1546    2.0102    0.0000 C   0  0
   -3.4401    2.4227    0.0000 C   0  0
   -2.7257    2.0102    0.0000 C   0  0
   -4.8691    2.4227    0.0000 O   0  0
   -4.8691    3.2477    0.0000 C   0  0
    2.8959   -1.3292    0.0000 N   0  0
    3.3084   -0.6147    0.0000 C   0  0
    4.1154   -0.7862    0.0000 C   0  0
    4.2016   -1.6067    0.0000 C   0  0
    4.8691   -2.0916    0.0000 C   0  0
    4.7828   -2.9121    0.0000 C   0  0
    4.0292   -3.2477    0.0000 C   0  0
    3.3617   -2.7627    0.0000 C   0  0
    3.4480   -1.9423    0.0000 C   0  0
  1  2  2  0
  3  4  1  0
  4  5  1  0
  5  6  1  0
  6  7  1  0
  3  7  1  0
  9 10  1  0
 12 13  1  0
 13 14  2  0
 14 15  1  0
 15 16  2  0
 16 17  1  0
 12 17  2  0
 11 12  1  0
 18 19  1  0
 19 20  1  0
 20 21  2  0
 21 22  1  0
 22 23  2  0
 23 24  1  0
 19 24  2  0
 25 26  1  0
 22 25  1  0
 11 18  1  0
 10 11  1  0
  8  9  1  0
  5  8  1  1
  1  3  1  0
 27 28  1  0
 28 29  2  0
 29 30  1  0
 30 31  1  0
 31 32  2  0
 32 33  1  0
 33 34  2  0
 34 35  1  0
 27 35  1  0
 30 35  2  0
  1 28  1  0
M  END