
  SciTegic05221516342D

 19 21  0  0  0  0            999 V2000
    6.5160   -8.6861    0.0000 N   0  0
    6.9963   -9.3473    0.0000 C   0  0
    6.5160  -10.0084    0.0000 N   0  0
    5.7388   -9.7558    0.0000 C   0  0
    5.0311  -10.1644    0.0000 N   0  0
    4.3234   -9.7558    0.0000 C   0  0
    4.3234   -8.9387    0.0000 N   0  0
    5.0311   -8.5301    0.0000 C   0  0
    5.7388   -8.9387    0.0000 C   0  0
    5.0311   -7.7129    0.0000 O   0  0
    7.8135   -9.3473    0.0000 S   0  0
    8.2221  -10.0550    0.0000 C   0  0
    9.0393  -10.0550    0.0000 C   0  0
    9.4479   -9.3473    0.0000 C   0  0
   10.2651   -9.3473    0.0000 C   0  0
   10.6737  -10.0550    0.0000 C   0  0
   10.2651  -10.7627    0.0000 C   0  0
    9.4479  -10.7627    0.0000 C   0  0
    3.6157  -10.1644    0.0000 N   0  0
  1  2  2  0
  2  3  1  0
  3  4  1  0
  4  5  1  0
  5  6  2  0
  6  7  1  0
  7  8  1  0
  8  9  1  0
  1  9  1  0
  4  9  2  0
  8 10  2  0
 12 13  1  0
 13 14  1  0
 14 15  2  0
 15 16  1  0
 16 17  2  0
 17 18  1  0
 13 18  2  0
 11 12  1  0
  2 11  1  0
  6 19  1  0
M  END