
  SciTegic05221516342D

 33 36  0  0  0  0            999 V2000
    9.4266  -13.1111    0.0000 N   0  0
   11.0773  -15.0072    0.0000 C   0  0
    9.8628  -14.4623    0.0000 C   0  0
    9.0651  -15.6899    0.0000 C   0  0
   10.5243  -15.6153    0.0000 C   0  0
    9.7762  -15.2785    0.0000 N   0  0
   10.6659  -14.2920    0.0000 N   0  0
    9.2543  -13.9138    0.0000 C   0  0
    8.8140  -12.5625    0.0000 O   0  0
    4.8084  -15.6916    0.0000 C   0  0
    5.5208  -15.2811    0.0000 N   0  0
    3.3920  -14.0552    0.0000 C   0  0
    6.9416  -15.2833    0.0000 C   0  0
    2.6843  -15.2833    0.0000 C   0  0
    5.5267  -14.4584    0.0000 C   0  0
    1.9743  -15.6966    0.0000 O   0  0
    4.0978  -14.4602    0.0000 C   0  0
    4.1011  -15.2799    0.0000 C   0  0
    4.8087  -14.0507    0.0000 C   0  0
    3.3947  -15.6930    0.0000 C   0  0
    1.9753  -16.5176    0.0000 C   0  0
    1.9749  -14.0513    0.0000 O   0  0
    2.6849  -14.4604    0.0000 C   0  0
    1.2641  -14.4589    0.0000 C   0  0
    6.2305  -15.6947    0.0000 C   0  0
    7.6497  -15.6912    0.0000 C   0  0
    8.3570  -15.2820    0.0000 C   0  0
    4.8081  -16.5033    0.0000 C   0  0
    4.0979  -16.9098    0.0000 C   0  0
    4.0958  -17.7262    0.0000 C   0  0
    4.8032  -18.1372    0.0000 C   0  0
    5.5141  -17.7257    0.0000 C   0  0
    5.5127  -16.9106    0.0000 C   0  0
  6  5  1  0
  4  6  1  0
  3  6  1  0
  1  9  1  0
  2  7  1  0
  3  8  1  0
  5  2  2  0
  7  3  2  0
  8  1  2  0
 13 25  1  0
 19 15  1  0
 10 18  1  0
 11 15  1  0
 23 12  2  0
 11 10  1  0
 23 22  1  0
 12 17  1  0
 14 23  1  0
 16 21  1  0
 25 11  1  0
 18 20  1  0
 17 18  2  0
 17 19  1  0
 20 14  2  0
 14 16  1  0
 22 24  1  0
 13 26  1  0
 26 27  1  0
 27  4  1  0
 28 29  2  0
 29 30  1  0
 30 31  2  0
 31 32  1  0
 32 33  2  0
 33 28  1  0
 10 28  1  0
M  END