
  SciTegic04151115542D

 11 12  0  0  0  0            999 V2000
    9.3652  -12.3041    0.0000 C   0  0
    9.3641  -13.1315    0.0000 C   0  0
   10.0789  -13.5444    0.0000 C   0  0
   10.7953  -13.1310    0.0000 N   0  0
   10.7925  -12.3005    0.0000 C   0  0
   10.0771  -11.8914    0.0000 C   0  0
    8.6506  -11.8926    0.0000 C   0  0
    8.5642  -11.0721    0.0000 C   0  0
    7.7572  -10.9008    0.0000 N   0  0
    7.3448  -11.6154    0.0000 C   0  0
    7.8971  -12.2283    0.0000 O   0  0
  5  6  2  0
  6  1  1  0
  7  8  2  0
  1  2  2  0
  3  4  2  0
  4  5  1  0
  2  3  1  0
  8  9  1  0
  9 10  2  0
 10 11  1  0
 11  7  1  0
  1  7  1  0
M  END