
  SciTegic03291108582D

 26 30  0  0  0  0            999 V2000
   -2.5799    0.3241    0.0000 S   0  0
   -0.0015   -0.6604    0.0000 S   0  0
   -2.4224   -1.1750    0.0000 N   0  0
   -1.0634   -1.6166    0.0000 N   0  0
    1.3710   -1.1873    0.0000 N   0  0
    0.3790   -2.0805    0.0000 N   0  0
    1.7066   -1.9410    0.0000 N   0  0
    1.0935   -2.4930    0.0000 N   0  0
   -1.3605   -0.2189    0.0000 C   0  0
   -1.2742    0.6016    0.0000 C   0  0
   -2.1674   -0.3904    0.0000 C   0  0
   -0.8084   -0.8319    0.0000 C   0  0
   -0.5598    1.0141    0.0000 C   0  0
   -2.0279    0.9372    0.0000 C   0  0
    0.5506   -1.2735    0.0000 C   0  0
    0.1547    0.6016    0.0000 C   0  0
    0.8692    1.0141    0.0000 C   0  0
   -0.5598    1.8391    0.0000 C   0  0
   -1.8704   -1.7881    0.0000 C   0  0
    0.8692    1.8391    0.0000 C   0  0
    0.1547    2.2516    0.0000 C   0  0
    1.5836    0.6016    0.0000 C   0  0
    1.5836    2.2516    0.0000 C   0  0
    1.7835   -0.4728    0.0000 C   0  0
    2.2981    1.0141    0.0000 C   0  0
    2.2981    1.8391    0.0000 C   0  0
  1 11  1  0
  1 14  1  0
  2 12  1  0
  2 15  1  0
  3 11  2  0
  3 19  1  0
  4 12  1  0
  4 19  2  0
  5  7  1  0
  5 15  1  0
  5 24  1  0
  6  8  1  0
  6 15  2  0
  7  8  2  0
  9 10  1  0
  9 11  1  0
  9 12  2  0
 10 13  1  0
 10 14  2  0
 13 16  2  0
 13 18  1  0
 16 17  1  0
 17 20  2  0
 17 22  1  0
 18 21  2  0
 20 21  1  0
 20 23  1  0
 22 25  2  0
 23 26  2  0
 25 26  1  0
M  END