
  Mrv0541 05211314572D          

 36 39  0  0  0  0            999 V2000
    5.7423   -4.3342    0.0000 C   0  0  0  0  0  0  0  0  0  0  0  0
    6.4568   -3.9217    0.0000 C   0  0  0  0  0  0  0  0  0  0  0  0
    7.1713   -4.3342    0.0000 C   0  0  0  0  0  0  0  0  0  0  0  0
    7.8857   -3.9217    0.0000 N   0  0  0  0  0  0  0  0  0  0  0  0
    7.1713   -5.1592    0.0000 O   0  0  0  0  0  0  0  0  0  0  0  0
    7.8857   -3.0967    0.0000 C   0  0  0  0  0  0  0  0  0  0  0  0
    8.6002   -2.6842    0.0000 C   0  0  0  0  0  0  0  0  0  0  0  0
    9.3147   -3.0967    0.0000 N   0  0  0  0  0  0  0  0  0  0  0  0
    9.3147   -3.9217    0.0000 C   0  0  0  0  0  0  0  0  0  0  0  0
    8.6002   -4.3342    0.0000 C   0  0  0  0  0  0  0  0  0  0  0  0
   10.0292   -2.6842    0.0000 C   0  0  0  0  0  0  0  0  0  0  0  0
   10.0292   -1.8592    0.0000 C   0  0  0  0  0  0  0  0  0  0  0  0
   10.7436   -1.4467    0.0000 C   0  0  0  0  0  0  0  0  0  0  0  0
   11.4581   -1.8592    0.0000 C   0  0  0  0  0  0  0  0  0  0  0  0
   11.4581   -2.6842    0.0000 C   0  0  0  0  0  0  0  0  0  0  0  0
   10.7436   -3.0967    0.0000 C   0  0  0  0  0  0  0  0  0  0  0  0
   12.1726   -1.4467    0.0000 N   0  3  0  0  0  0  0  0  0  0  0  0
   12.8870   -1.8592    0.0000 O   0  0  0  0  0  0  0  0  0  0  0  0
   12.1726   -0.6217    0.0000 O   0  5  0  0  0  0  0  0  0  0  0  0
    5.0279   -3.9217    0.0000 N   0  0  0  0  0  0  0  0  0  0  0  0
    5.0279   -3.0967    0.0000 C   0  0  0  0  0  0  0  0  0  0  0  0
    4.3134   -4.3342    0.0000 C   0  0  0  0  0  0  0  0  0  0  0  0
    3.5989   -3.9217    0.0000 C   0  0  0  0  0  0  0  0  0  0  0  0
    2.8845   -4.3342    0.0000 C   0  0  0  0  0  0  0  0  0  0  0  0
    2.1700   -3.9217    0.0000 C   0  0  0  0  0  0  0  0  0  0  0  0
    2.8845   -5.1592    0.0000 C   0  0  0  0  0  0  0  0  0  0  0  0
    1.4555   -4.3342    0.0000 C   0  0  0  0  0  0  0  0  0  0  0  0
    0.7410   -3.9217    0.0000 C   0  0  0  0  0  0  0  0  0  0  0  0
    0.7410   -3.0967    0.0000 C   0  0  0  0  0  0  0  0  0  0  0  0
    1.4555   -2.6842    0.0000 C   0  0  0  0  0  0  0  0  0  0  0  0
    2.1700   -3.0967    0.0000 C   0  0  0  0  0  0  0  0  0  0  0  0
    3.5989   -5.5717    0.0000 C   0  0  0  0  0  0  0  0  0  0  0  0
    3.5989   -6.3967    0.0000 C   0  0  0  0  0  0  0  0  0  0  0  0
    2.8845   -6.8092    0.0000 C   0  0  0  0  0  0  0  0  0  0  0  0
    2.1700   -6.3967    0.0000 C   0  0  0  0  0  0  0  0  0  0  0  0
    2.1700   -5.5717    0.0000 C   0  0  0  0  0  0  0  0  0  0  0  0
  7  8  1  0  0  0  0
 17 18  2  0  0  0  0
 17 19  1  0  0  0  0
 14 17  1  0  0  0  0
  8  9  1  0  0  0  0
  1 20  1  0  0  0  0
  9 10  1  0  0  0  0
 20 21  1  0  0  0  0
  4  6  1  0  0  0  0
 20 22  1  0  0  0  0
  8 11  1  0  0  0  0
 22 23  1  0  0  0  0
  2  3  1  0  0  0  0
 23 24  1  0  0  0  0
 11 12  2  0  0  0  0
 24 25  1  0  0  0  0
  1  2  1  0  0  0  0
 24 26  1  0  0  0  0
 12 13  1  0  0  0  0
 25 27  2  0  0  0  0
  3  4  1  0  0  0  0
 27 28  1  0  0  0  0
 13 14  2  0  0  0  0
 28 29  2  0  0  0  0
 29 30  1  0  0  0  0
 14 15  1  0  0  0  0
 30 31  2  0  0  0  0
 31 25  1  0  0  0  0
  3  5  2  0  0  0  0
 26 32  2  0  0  0  0
 15 16  2  0  0  0  0
 32 33  1  0  0  0  0
 16 11  1  0  0  0  0
 33 34  2  0  0  0  0
  4 10  1  0  0  0  0
 34 35  1  0  0  0  0
  6  7  1  0  0  0  0
 35 36  2  0  0  0  0
 36 26  1  0  0  0  0
M  CHG  2  17   1  19  -1
M  END