
  SciTegic01111613442D

 25 28  0  0  0  0            999 V2000
    0.0000    1.5002    0.0000 N   0  0
   -1.2989    0.7501    0.0000 C   0  0
    0.0000   -1.5002    0.0000 S   0  0
    1.2806    0.7501    0.0000 C   0  0
   -1.2989   -0.7501    0.0000 C   0  0
    1.2806   -0.7501    0.0000 C   0  0
    0.0120    3.0009    0.0000 C   0  0
    2.6328    5.9848    0.0000 N   0  0
   -2.5978    1.5002    0.0000 C   0  0
    1.3173    3.7417    0.0000 C   0  0
    1.3293    5.2425    0.0000 C   0  0
   -2.5978   -1.5002    0.0000 C   0  0
   -3.8968    0.7501    0.0000 C   0  0
   -5.1981    1.4978    0.0000 S   0  0
   -3.8968   -0.7501    0.0000 C   0  0
    3.6685    5.3785    0.0000 C   0  0
    2.6419    7.4847    0.0000 C   0  0
    2.5978    1.5002    0.0000 C   0  0
    2.5978   -1.5002    0.0000 C   0  0
    0.0348    6.0004    0.0000 C   0  0
   -6.2364    0.8963    0.0000 C   0  0
    1.3473    8.2425    0.0000 C   0  0
    3.8968    0.7501    0.0000 C   0  0
    3.8968   -0.7501    0.0000 C   0  0
    0.0438    7.5003    0.0000 C   0  0
  2  1  1  0
  3  6  1  0
  4  1  1  0
  5  2  1  0
  6  4  2  0
  7  1  1  0
  8 11  1  0
  9  2  2  0
 10  7  1  0
 11 10  1  0
 12  5  2  0
 13  9  1  0
 14 13  1  0
 15 13  2  0
 16  8  1  0
 17  8  1  0
 18  4  1  0
 19  6  1  0
 20 11  1  0
 21 14  1  0
 22 25  1  0
 23 18  2  0
 24 23  1  0
 25 20  1  0
  3  5  1  0
 24 19  2  0
 15 12  1  0
 22 17  1  0
M  END