
          11280715122D 1   1.00000     0.00000     0

 29 31  0     0  0            999 V2000
    5.8875   -3.2917    0.0000 C   0  0  0  0  0  0           0  0  0
    5.1750   -2.8792    0.0000 C   0  0  0  0  0  0           0  0  0
    1.1292   -3.4000    0.0000 N   0  0  3  0  0  0           0  0  0
    5.8875   -4.1167    0.0000 C   0  0  0  0  0  0           0  0  0
    0.4125   -2.9875    0.0000 C   0  0  0  0  0  0           0  0  0
    1.8375   -1.3292    0.0000 N   0  0  0  0  0  0           0  0  0
    1.1250   -1.7417    0.0000 C   0  0  0  0  0  0           0  0  0
    0.4125   -2.1542    0.0000 C   0  0  0  0  0  0           0  0  0
    2.4917   -4.3167    0.0000 N   0  0  3  0  0  0           0  0  0
    5.1750   -2.0542    0.0000 N   0  0  3  0  0  0           0  0  0
    6.6000   -4.5292    0.0000 N   0  0  0  0  0  0           0  0  0
    4.4542   -3.2917    0.0000 O   0  0  0  0  0  0           0  0  0
    1.8667   -3.0292    0.0000 C   0  0  0  0  0  0           0  0  0
    1.0667   -4.2167    0.0000 C   0  0  0  0  0  0           0  0  0
    5.1750   -4.5375    0.0000 N   0  0  0  0  0  0           0  0  0
    2.5500   -3.5000    0.0000 C   0  0  0  0  0  0           0  0  0
    1.7500   -4.6792    0.0000 C   0  0  0  0  0  0           0  0  0
    6.6000   -2.8792    0.0000 C   0  0  0  0  0  0           0  0  0
    3.1667   -4.7875    0.0000 C   0  0  0  0  0  0           0  0  0
    3.8792   -4.3667    0.0000 C   0  0  0  0  0  0           0  0  0
   -0.3083   -3.4000    0.0000 C   0  0  0  0  0  0           0  0  0
   -0.3083   -1.7417    0.0000 C   0  0  0  0  0  0           0  0  0
    7.3167   -4.1167    0.0000 C   0  0  0  0  0  0           0  0  0
    4.4625   -4.9500    0.0000 C   0  0  0  0  0  0           0  0  0
    5.8875   -1.6417    0.0000 C   0  0  0  0  0  0           0  0  0
    4.4542   -1.6417    0.0000 C   0  0  0  0  0  0           0  0  0
    7.3167   -3.2917    0.0000 C   0  0  0  0  0  0           0  0  0
   -1.0208   -2.9875    0.0000 C   0  0  0  0  0  0           0  0  0
   -1.0208   -2.1542    0.0000 C   0  0  0  0  0  0           0  0  0
  2  1  1  0     0  0
  3 14  1  0     0  0
  4  1  2  0     0  0
  5  3  1  0     0  0
  6  7  3  0     0  0
  7  8  1  0     0  0
  8  5  1  0     0  0
  9 19  1  0     0  0
 10  2  1  0     0  0
 11  4  1  0     0  0
 12  2  2  0     0  0
 13 16  1  0     0  0
 14 17  1  0     0  0
 15  4  1  0     0  0
 16  9  1  0     0  0
 17  9  1  0     0  0
 18  1  1  0     0  0
 19 20  1  0     0  0
 20 24  1  0     0  0
 21  5  2  0     0  0
 22  8  2  0     0  0
 23 27  1  0     0  0
 24 15  1  0     0  0
 25 10  1  0     0  0
 26 10  1  0     0  0
 27 18  2  0     0  0
 28 21  1  0     0  0
 29 28  2  0     0  0
 23 11  2  0     0  0
  3 13  1  0     0  0
 29 22  1  0     0  0
M  END