
          11280715482D 1   1.00000     0.00000     0

 37 42  0     0  0            999 V2000
    4.1375   -0.9667    0.0000 C   0  0  0  0  0  0           0  0  0
    3.3792   -0.6250    0.0000 N   0  0  0  0  0  0           0  0  0
    2.8292   -1.2375    0.0000 C   0  0  0  0  0  0           0  0  0
    4.0417   -1.7875    0.0000 C   0  0  0  0  0  0           0  0  0
    3.2292   -1.9542    0.0000 N   0  0  0  0  0  0           0  0  0
    4.8542   -0.5542    0.0000 C   0  0  0  0  0  0           0  0  0
    5.0792   -3.7042    0.0000 C   0  0  3  0  0  0           0  0  0
    7.7042   -0.5792    0.0000 C   0  0  0  0  0  0           0  0  0
    2.0042   -1.1417    0.0000 C   0  0  0  0  0  0           0  0  0
    5.5667   -0.9750    0.0000 N   0  0  0  0  0  0           0  0  0
    8.4167   -1.0000    0.0000 C   0  0  0  0  0  0           0  0  0
    6.3917   -4.0417    0.0000 C   0  0  3  0  0  0           0  0  0
    5.2625   -4.9625    0.0000 C   0  0  3  0  0  0           0  0  0
    5.6875   -5.1917    0.0000 C   0  0  3  0  0  0           0  0  0
    6.9917   -0.9917    0.0000 C   0  0  0  0  0  0           0  0  0
    6.2792   -0.5667    0.0000 C   0  0  0  0  0  0           0  0  0
    4.8542    0.2708    0.0000 O   0  0  0  0  0  0           0  0  0
    4.6500   -2.3417    0.0000 C   0  0  0  0  0  0           0  0  0
    7.7125    0.2458    0.0000 C   0  0  0  0  0  0           0  0  0
    5.1125   -4.5667    0.0000 C   0  0  0  0  0  0           0  0  0
    4.7167   -4.3792    0.0000 C   0  0  0  0  0  0           0  0  0
    5.8417   -3.4292    0.0000 C   0  0  0  0  0  0           0  0  0
    8.4125   -1.8250    0.0000 O   0  0  0  0  0  0           0  0  0
    1.5250   -1.8042    0.0000 C   0  0  0  0  0  0           0  0  0
    4.4750   -3.1500    0.0000 C   0  0  0  0  0  0           0  0  0
    6.4500   -4.9125    0.0000 C   0  0  0  0  0  0           0  0  0
    5.2417   -5.9000    0.0000 C   0  0  0  0  0  0           0  0  0
    5.9625   -4.6792    0.0000 C   0  0  0  0  0  0           0  0  0
    6.9917    0.6583    0.0000 C   0  0  0  0  0  0           0  0  0
    9.1375   -0.5917    0.0000 O   0  0  0  0  0  0           0  0  0
    6.2792    0.2500    0.0000 C   0  0  0  0  0  0           0  0  0
    1.6792   -0.3875    0.0000 C   0  0  0  0  0  0           0  0  0
    8.4292    0.6500    0.0000 C   0  0  0  0  0  0           0  0  0
    1.8542   -2.5625    0.0000 C   0  0  0  0  0  0           0  0  0
    0.7042   -1.7167    0.0000 C   0  0  0  0  0  0           0  0  0
    0.8542   -0.2917    0.0000 C   0  0  0  0  0  0           0  0  0
    0.3667   -0.9625    0.0000 C   0  0  0  0  0  0           0  0  0
  2  1  1  0     0  0
  3  2  1  0     0  0
  4  1  2  0     0  0
  5  4  1  0     0  0
  6  1  1  0     0  0
  7 25  1  0     0  0
  8 15  2  0     0  0
  9  3  1  0     0  0
 10  6  1  0     0  0
 11  8  1  0     0  0
 12 22  1  0     0  0
 13 21  1  0     0  0
 14 20  1  0     0  0
 15 16  1  0     0  0
 16 10  1  0     0  0
 17  6  2  0     0  0
 18  4  1  0     0  0
 19 29  2  0     0  0
 20  7  1  0     0  0
 21  7  1  0     0  0
 22  7  1  0     0  0
 23 11  2  0     0  0
 24  9  2  0     0  0
 25 18  1  0     0  0
 26 12  1  0     0  0
 27 13  1  0     0  0
 28 12  1  0     0  0
 29 31  1  0     0  0
 30 11  1  0     0  0
 31 16  2  0     0  0
 32  9  1  0     0  0
 33 19  1  0     0  0
 34 24  1  0     0  0
 35 24  1  0     0  0
 36 32  2  0     0  0
 37 36  1  0     0  0
  3  5  2  0     0  0
  8 19  1  0     0  0
 35 37  2  0     0  0
 13 28  1  0     0  0
 14 26  1  0     0  0
 14 27  1  0     0  0
M  END