
  CDK    9/16/09,10:6

 42 44  0  0  0  0  0  0  0  0999 V2000
   -3.3118   -3.8800    0.0000 C   0  0  0  0  0  0  0  0  0  0  0  0
   -3.3118   -4.7092    0.0000 C   0  0  0  0  0  0  0  0  0  0  0  0
   -2.5950   -5.1237    0.0000 C   0  0  0  0  0  0  0  0  0  0  0  0
   -1.8782   -4.7092    0.0000 C   0  0  0  0  0  0  0  0  0  0  0  0
   -1.8782   -3.8800    0.0000 C   0  0  0  0  0  0  0  0  0  0  0  0
   -2.5950   -3.4655    0.0000 C   0  0  0  0  0  0  0  0  0  0  0  0
   -2.5962   -2.6411    0.0000 O   0  0  0  0  0  0  0  0  0  0  0  0
   -2.5962   -5.9482    0.0000 O   0  0  0  0  0  0  0  0  0  0  0  0
   -4.0249   -3.4719    0.0000 C   0  0  0  0  0  0  0  0  0  0  0  0
   -4.0269   -2.6474    0.0000 C   0  0  0  0  0  0  0  0  0  0  0  0
   -4.7448   -2.2347    0.0000 C   0  0  0  0  0  0  0  0  0  0  0  0
   -3.3158   -2.2311    0.0000 C   0  0  0  0  0  0  0  0  0  0  0  0
   -3.3179   -1.4067    0.0000 C   0  0  0  0  0  0  0  0  0  0  0  0
   -2.6021   -0.9951    0.0000 C   0  0  0  0  0  0  0  0  0  0  0  0
   -4.0310   -0.9985    0.0000 O   0  0  0  0  0  0  0  0  0  0  0  0
   -4.0330   -0.1741    0.0000 C   0  0  0  0  0  0  0  0  0  0  0  0
   -2.6041   -0.1706    0.0000 C   0  0  0  0  0  0  0  0  0  0  0  0
   -1.8889   -1.4032    0.0000 O   0  0  0  0  0  0  0  0  0  0  0  0
   -1.8930    0.2457    0.0000 C   0  0  0  0  0  0  0  0  0  0  0  0
   -3.3219    0.2423    0.0000 C   0  0  0  0  0  0  0  0  0  0  0  0
   -1.1751   -0.1671    0.0000 C   0  0  0  0  0  0  0  0  0  0  0  0
   -0.4640    0.2492    0.0000 C   0  0  0  0  0  0  0  0  0  0  0  0
   -1.1731   -0.9916    0.0000 C   0  0  0  0  0  0  0  0  0  0  0  0
    0.3586    0.2515    0.0000 C   0  0  0  0  0  0  0  0  0  0  0  0
    1.0713   -0.1630    0.0000 C   0  0  0  0  0  0  0  0  0  0  0  0
    0.5709    1.0475    0.0000 O   0  0  0  0  0  0  0  0  0  0  0  0
   -0.6785    1.0445    0.0000 O   0  0  0  0  0  0  0  0  0  0  0  0
   -1.4750    1.2547    0.0000 C   0  0  0  0  0  0  0  0  0  0  0  0
   -1.6941    2.0547    0.0000 O   0  0  0  0  0  0  0  0  0  0  0  0
   -2.0570    0.6696    0.0000 N   0  0  0  0  0  0  0  0  0  0  0  0
    1.3713    1.2600    0.0000 C   0  0  0  0  0  0  0  0  0  0  0  0
    1.0693   -0.9875    0.0000 C   0  0  0  0  0  0  0  0  0  0  0  0
    0.3515   -1.3956    0.0000 C   0  0  0  0  0  0  0  0  0  0  0  0
    0.3493   -2.2201    0.0000 C   0  0  0  0  0  0  0  0  0  0  0  0
    1.0651   -2.6364    0.0000 C   0  0  0  0  0  0  0  0  0  0  0  0
   -1.1611   -3.4709    0.0000 N   0  0  0  0  0  0  0  0  0  0  0  0
   -1.1602   -2.6464    0.0000 C   0  0  0  0  0  0  0  0  0  0  0  0
   -1.8765   -2.2311    0.0000 O   0  0  0  0  0  0  0  0  0  0  0  0
   -4.0239   -5.1237    0.0000 N   0  0  0  0  0  0  0  0  0  0  0  0
   -4.8209   -4.9153    0.0000 C   0  0  0  0  0  0  0  0  0  0  0  0
   -5.0379   -5.7113    0.0000 C   0  0  0  0  0  0  0  0  0  0  0  0
   -4.2373   -5.9236    0.0000 C   0  0  0  0  0  0  0  0  0  0  0  0
 19 21  2  0  0  0  0 
  3  4  1  0  0  0  0 
 21 22  1  0  0  0  0 
 10 11  1  1  0  0  0 
 21 23  1  0  0  0  0 
  4  5  2  0  0  0  0 
 22 24  1  0  0  0  0 
 10 12  1  0  0  0  0 
 24 25  1  0  0  0  0 
  5  6  1  0  0  0  0 
 24 26  1  1  0  0  0 
 12 13  1  0  0  0  0 
 22 27  1  6  0  0  0 
 27 28  1  0  0  0  0 
 13 14  1  0  0  0  0 
 28 29  2  0  0  0  0 
  6  7  2  0  0  0  0 
 28 30  1  0  0  0  0 
 13 15  1  6  0  0  0 
 26 31  1  0  0  0  0 
  1  2  2  0  0  0  0 
 25 32  2  0  0  0  0 
 15 16  1  0  0  0  0 
 32 33  1  0  0  0  0 
  3  8  2  0  0  0  0 
 33 34  2  0  0  0  0 
 14 17  1  0  0  0  0 
 34 35  1  0  0  0  0 
  1  6  1  0  0  0  0 
  5 36  1  0  0  0  0 
 14 18  1  1  0  0  0 
 36 37  1  0  0  0  0 
  1  9  1  0  0  0  0 
 37 38  2  0  0  0  0 
 37 34  1  0  0  0  0 
 17 19  1  0  0  0  0 
  2 39  1  0  0  0  0 
 39 40  1  0  0  0  0 
  2  3  1  0  0  0  0 
 17 20  1  1  0  0  0 
  9 10  1  0  0  0  0 
 40 41  1  0  0  0  0 
 41 42  1  0  0  0  0 
 42 39  1  0  0  0  0 
M  END