
  SciTegic12231509382D

 12 12  0  0  0  0            999 V2000
    5.0972    0.0344    0.0000 O   0  0
    2.9538    2.0969    0.0000 N   0  0
    3.6682    0.0344    0.0000 C   0  0
    4.3827   -0.3781    0.0000 C   0  0
    2.9538   -0.3781    0.0000 C   0  0
    3.6682    0.8594    0.0000 C   0  0
    4.3827   -1.2031    0.0000 C   0  0
    2.9538   -1.2031    0.0000 C   0  0
    3.6682   -1.6156    0.0000 C   0  0
    2.9538    1.2719    0.0000 C   0  0
    5.8116   -0.3781    0.0000 C   0  0
    2.2393    0.8594    0.0000 C   0  0
  1  4  1  0
  1 11  1  0
  2 10  1  0
  3  4  2  0
  3  5  1  0
  3  6  1  0
  4  7  1  0
  5  8  2  0
  6 10  1  0
  7  9  2  0
  8  9  1  0
 10 12  1  0
M  END