
          11280714462D 1   1.00000     0.00000     0

 25 26  0     0  0            999 V2000
    2.7292   -2.1042    0.0000 C   0  0  0  0  0  0           0  0  0
    3.2542   -2.4042    0.0000 C   0  0  0  0  0  0           0  0  0
    2.7292   -1.4917    0.0000 C   0  0  0  0  0  0           0  0  0
    3.2542   -3.0042    0.0000 N   0  0  3  0  0  0           0  0  0
    2.2042   -1.1917    0.0000 C   0  0  0  0  0  0           0  0  0
    2.9542   -3.9417    0.0000 N   0  0  0  0  0  0           0  0  0
    3.2500   -1.1875    0.0000 O   0  0  0  0  0  0           0  0  0
    2.7667   -3.3542    0.0000 C   0  0  0  0  0  0           0  0  0
    1.6792   -1.5000    0.0000 C   0  0  0  0  0  0           0  0  0
    2.2042   -2.4042    0.0000 C   0  0  0  0  0  0           0  0  0
    3.7417   -3.3667    0.0000 C   0  0  0  0  0  0           0  0  0
    1.6792   -2.1042    0.0000 C   0  0  0  0  0  0           0  0  0
    3.5500   -3.9417    0.0000 C   0  0  0  0  0  0           0  0  0
    3.7792   -2.1000    0.0000 C   0  0  0  0  0  0           0  0  0
    5.3917   -1.7417    0.0000 N   0  0  0  0  0  0           0  0  0
    5.7417   -2.2292    0.0000 C   0  0  3  0  0  0           0  0  0
    2.1917   -0.5917    0.0000 Cl  0  0  0  0  0  0           0  0  0
    3.7750   -1.4875    0.0000 C   0  0  0  0  0  0           0  0  0
    4.3542   -1.3292    0.0000 C   0  0  3  0  0  0           0  0  0
    4.7875   -1.7417    0.0000 C   0  0  0  0  0  0           0  0  0
    1.1625   -2.4000    0.0000 Cl  0  0  0  0  0  0           0  0  0
    4.5042   -0.7417    0.0000 O   0  0  0  0  0  0           0  0  0
    5.5000   -2.7792    0.0000 C   0  0  0  0  0  0           0  0  0
    6.3417   -2.1667    0.0000 C   0  0  0  0  0  0           0  0  0
    6.2125   -2.6042    0.0000 C   0  0  0  0  0  0           0  0  0
  2  1  1  0     0  0
  3  1  1  0     0  0
  4  2  1  0     0  0
  5  3  2  0     0  0
  6  8  2  0     0  0
  7  3  1  0     0  0
  8  4  1  0     0  0
  9 12  2  0     0  0
 10  1  2  0     0  0
 11  4  1  0     0  0
 12 10  1  0     0  0
 13 11  2  0     0  0
 14  2  2  0     0  0
 15 20  1  0     0  0
 16 15  1  0     0  0
 17  5  1  0     0  0
 18  7  1  0     0  0
 19 18  1  0     0  0
 20 19  1  0     0  0
 21 12  1  0     0  0
 22 19  1  0     0  0
 23 16  1  0     0  0
 24 16  1  0     0  0
 25 16  1  0     0  0
  9  5  1  0     0  0
 13  6  1  0     0  0
M  END