
          11280715522D 1   1.00000     0.00000     0

 48 51  0     1  0            999 V2000
    3.8736   -6.4791    0.0000 C   0  0  0  0  0  0           0  0  0
    3.8724   -7.3065    0.0000 C   0  0  0  0  0  0           0  0  0
    4.5872   -7.7194    0.0000 C   0  0  0  0  0  0           0  0  0
    4.5854   -6.0664    0.0000 C   0  0  0  0  0  0           0  0  0
    5.3008   -6.4755    0.0000 C   0  0  0  0  0  0           0  0  0
    5.3016   -7.3023    0.0000 C   0  0  0  0  0  0           0  0  0
    6.0169   -7.7133    0.0000 N   0  0  0  0  0  0           0  0  0
    6.7319   -7.2985    0.0000 C   0  0  0  0  0  0           0  0  0
    6.7271   -6.4686    0.0000 C   0  0  0  0  0  0           0  0  0
    6.0112   -6.0613    0.0000 C   0  0  0  0  0  0           0  0  0
    4.5891   -8.5444    0.0000 O   0  0  0  0  0  0           0  0  0
    5.3046   -8.9552    0.0000 C   0  0  0  0  0  0           0  0  0
    5.3065   -9.7802    0.0000 C   0  0  0  0  0  0           0  0  0
    4.5904  -10.1900    0.0000 C   0  0  0  0  0  0           0  0  0
    4.5919  -11.0142    0.0000 C   0  0  0  0  0  0           0  0  0
    5.3079  -11.4259    0.0000 C   0  0  0  0  0  0           0  0  0
    6.0238  -11.0073    0.0000 C   0  0  0  0  0  0           0  0  0
    6.0187  -10.1844    0.0000 C   0  0  0  0  0  0           0  0  0
    3.8763   -9.7768    0.0000 Cl  0  0  0  0  0  0           0  0  0
    6.7304   -9.7671    0.0000 Cl  0  0  0  0  0  0           0  0  0
    7.4480   -7.7083    0.0000 C   0  0  0  0  0  0           0  0  0
    6.7406  -11.4156    0.0000 S   0  0  3  0  0  0           0  0  0
    7.4500  -11.8250    0.0000 N   0  0  0  0  0  0           0  0  0
    7.1510  -10.8249    0.0000 O   0  0  0  0  0  0           0  0  0
    6.3042  -12.0406    0.0000 O   0  0  0  0  0  0           0  0  0
    8.2581  -11.3498    0.0000 C   0  0  3  0  0  0           0  0  0
    8.8750  -10.9917    0.0000 C   0  0  0  0  0  0           0  0  0
    8.4871  -12.2496    0.0000 C   0  0  0  0  0  0           0  0  0
    7.9972  -10.6694    0.0000 C   0  0  0  0  0  0           0  0  0
    8.8660  -10.1667    0.0000 O   0  0  0  0  0  0           0  0  0
    9.5939  -11.3963    0.0000 N   0  0  3  0  0  0           0  0  0
    9.5985  -12.2217    0.0000 C   0  0  0  0  0  0           0  0  0
   10.3134  -12.6263    0.0000 C   0  0  0  0  0  0           0  0  0
   11.0257  -12.2095    0.0000 N   0  0  3  0  0  0           0  0  0
   11.0187  -11.3836    0.0000 C   0  0  0  0  0  0           0  0  0
   10.2992  -10.9745    0.0000 C   0  0  0  0  0  0           0  0  0
   11.7431  -12.6169    0.0000 C   0  0  0  0  0  0           0  0  0
   12.4546  -12.1993    0.0000 O   0  0  0  0  0  0           0  0  0
   11.7491  -13.4419    0.0000 C   0  0  2  0  0  0           0  0  0
   12.4665  -13.8492    0.0000 C   0  0  0  0  0  0           0  0  0
   11.0376  -13.8595    0.0000 N   0  0  0  0  0  0           0  0  0
   13.1780  -13.4316    0.0000 C   0  0  0  0  0  0           0  0  0
   13.8954  -13.8390    0.0000 C   0  0  0  0  0  0           0  0  0
   14.6069  -13.4214    0.0000 C   0  0  0  0  0  0           0  0  0
   15.3243  -13.8287    0.0000 N   0  0  3  0  0  0           0  0  0
   16.0358  -13.4111    0.0000 C   0  0  0  0  0  0           0  0  0
   15.3302  -14.6537    0.0000 C   0  0  0  0  0  0           0  0  0
    6.0069   -5.2364    0.0000 C   0  0  0  0  0  0           0  0  0
 22 23  1  0     0  0
  3 11  1  0     0  0
 22 24  2  0     0  0
  2  3  1  0     0  0
 22 25  2  0     0  0
 11 12  1  0     0  0
 23 26  1  0     0  0
  5  6  1  0     0  0
 26 27  1  0     0  0
 12 13  1  0     0  0
 26 28  1  0     0  0
  3  6  2  0     0  0
 26 29  1  0     0  0
 13 14  2  0     0  0
 27 30  2  0     0  0
  6  7  1  0     0  0
 27 31  1  0     0  0
 31 32  1  0     0  0
 14 15  1  0     0  0
  1  2  2  0     0  0
 15 16  2  0     0  0
  7  8  2  0     0  0
 16 17  1  0     0  0
 31 36  1  0     0  0
 32 33  1  0     0  0
 33 34  1  0     0  0
 34 35  1  0     0  0
 35 36  1  0     0  0
  5  4  2  0     0  0
 34 37  1  0     0  0
 17 18  2  0     0  0
 37 38  2  0     0  0
 18 13  1  0     0  0
 37 39  1  0     0  0
  8  9  1  0     0  0
 39 40  1  0     0  0
 14 19  1  0     0  0
 39 41  1  6     0  0
  4  1  1  0     0  0
 40 42  1  0     0  0
 18 20  1  0     0  0
 42 43  1  0     0  0
  9 10  2  0     0  0
 43 44  1  0     0  0
  8 21  1  0     0  0
 44 45  1  0     0  0
 10  5  1  0     0  0
 45 46  1  0     0  0
 17 22  1  0     0  0
 45 47  1  0     0  0
 10 48  1  0     0  0
M  END