
  SciTegic11081110012D

 33 35  0  0  0  0            999 V2000
   19.9944   -1.4041    0.0000 C   0  0
   19.9932   -2.2315    0.0000 C   0  0
   20.7081   -2.6444    0.0000 C   0  0
   21.4245   -2.2310    0.0000 C   0  0
   21.4216   -1.4005    0.0000 C   0  0
   20.7063   -0.9914    0.0000 C   0  0
   22.1396   -2.6424    0.0000 C   0  0
   22.1409   -3.4674    0.0000 F   0  0
   22.8534   -2.2288    0.0000 F   0  0
   22.8500   -3.0542    0.0000 F   0  0
   20.7038   -0.1664    0.0000 C   0  0
   21.4170    0.2483    0.0000 F   0  0
   19.9881    0.2440    0.0000 F   0  0
   20.6958    0.6625    0.0000 F   0  0
   19.2785   -2.6434    0.0000 C   0  0
   18.5643   -2.2304    0.0000 N   0  0
   17.8495   -2.6423    0.0000 C   0  0
   18.5650   -1.4054    0.0000 C   0  0
   19.2798   -0.9934    0.0000 O   0  0
   17.8508   -0.9923    0.0000 C   0  0  2  0  0  0
   17.8543   -0.1670    0.0000 C   0  0
   16.4244   -0.9884    0.0000 C   0  0
   17.1390   -1.4060    0.0000 N   0  0
   16.4271   -0.1625    0.0000 C   0  0
   17.1433    0.2442    0.0000 C   0  0
   17.1483    1.0659    0.0000 C   0  0
   16.4377    1.4819    0.0000 C   0  0
   15.7207    1.0703    0.0000 C   0  0
   15.7193    0.2499    0.0000 C   0  0
   16.5500   -1.9875    0.0000 C   0  0
   15.7545   -1.7689    0.0000 O   0  0
   16.5570   -2.8125    0.0000 C   0  0
   18.4333   -0.4042    0.0000 H   0  0
  7  8  1  0
 16 17  1  0
 16 18  1  0
  7  9  1  0
 18 19  2  0
  4  5  1  0
 18 20  1  0
 20 21  1  0
  7 10  1  0
  2  3  1  0
  6 11  1  0
 20 23  1  0
 21 25  1  0
 24 22  1  0
 22 23  1  0
  5  6  2  0
 11 12  1  0
 24 25  2  0
  6  1  1  0
 25 26  1  0
 11 13  1  0
 26 27  2  0
  1  2  2  0
 27 28  1  0
 11 14  1  0
 28 29  2  0
 29 24  1  0
  4  7  1  0
 23 30  1  0
  2 15  1  0
 30 31  2  0
  3  4  2  0
 30 32  1  0
 15 16  1  0
 20 33  1  6
M  END