
          11280714522D 1   1.00000     0.00000     0

 57 62  0     1  0            999 V2000
   -0.2208   -2.6250    0.0000 N   0  0  0  0  0  0           0  0  0
    0.1375   -1.8667    0.0000 C   0  0  2  0  0  0           0  0  0
   -1.0375   -0.9375    0.0000 N   0  0  3  0  0  0           0  0  0
   -1.0333   -2.8125    0.0000 C   0  0  0  0  0  0           0  0  0
   -0.2250   -1.1167    0.0000 C   0  0  0  0  0  0           0  0  0
   -1.6875   -2.2917    0.0000 C   0  0  0  0  0  0           0  0  0
    0.9625   -1.8667    0.0000 N   0  0  0  0  0  0           0  0  0
   -1.6875   -1.4625    0.0000 C   0  0  0  0  0  0           0  0  0
    1.3750   -2.5792    0.0000 C   0  0  0  0  0  0           0  0  0
   -1.2208   -3.6167    0.0000 C   0  0  0  0  0  0           0  0  0
   -0.3625   -6.3375    0.0000 C   0  0  0  0  0  0           0  0  0
    2.1917   -2.5792    0.0000 N   0  0  0  0  0  0           0  0  0
    8.1917  -10.6542    0.0000 N   0  0  3  0  0  0           0  0  0
    0.2875   -0.4667    0.0000 O   0  0  0  0  0  0           0  0  0
    1.1042   -9.6167    0.0000 C   0  0  0  0  0  0           0  0  0
   -0.1833   -5.5292    0.0000 O   0  0  0  0  0  0           0  0  0
   -0.6125   -4.1667    0.0000 C   0  0  0  0  0  0           0  0  0
    0.9667   -3.2917    0.0000 O   0  0  0  0  0  0           0  0  0
   -1.1500   -6.5792    0.0000 O   0  0  0  0  0  0           0  0  0
   -0.7958   -4.9667    0.0000 C   0  0  0  0  0  0           0  0  0
    2.6167   -3.2917    0.0000 C   0  0  0  0  0  0           0  0  0
    0.9250  -10.4250    0.0000 O   0  0  0  0  0  0           0  0  0
    7.5417  -10.1500    0.0000 C   0  0  0  0  0  0           0  0  0
    0.2417   -6.8917    0.0000 N   0  0  0  0  0  0           0  0  0
    6.7792  -10.4625    0.0000 C   0  0  0  0  0  0           0  0  0
    1.8917   -9.3667    0.0000 N   0  0  0  0  0  0           0  0  0
   -1.2250   -0.1292    0.0000 C   0  0  0  0  0  0           0  0  0
    2.2042   -4.0042    0.0000 C   0  0  0  0  0  0           0  0  0
    6.1292   -9.9542    0.0000 C   0  0  0  0  0  0           0  0  0
   -2.4083   -2.7042    0.0000 C   0  0  0  0  0  0           0  0  0
    5.3667  -10.2667    0.0000 C   0  0  0  0  0  0           0  0  0
   -2.4083   -1.0500    0.0000 C   0  0  0  0  0  0           0  0  0
    2.6167   -4.7167    0.0000 C   0  0  0  0  0  0           0  0  0
   -2.0083   -3.8542    0.0000 C   0  0  0  0  0  0           0  0  0
    3.3042   -9.5667    0.0000 C   0  0  0  0  0  0           0  0  0
    4.7167   -9.7625    0.0000 O   0  0  0  0  0  0           0  0  0
    8.0792  -11.4667    0.0000 C   0  0  0  0  0  0           0  0  0
    8.9542  -10.3375    0.0000 C   0  0  0  0  0  0           0  0  0
   -2.1875   -4.6542    0.0000 C   0  0  0  0  0  0           0  0  0
    5.9042  -11.5917    0.0000 C   0  0  0  0  0  0           0  0  0
    3.8542   -3.9917    0.0000 C   0  0  0  0  0  0           0  0  0
    0.4917   -9.0625    0.0000 C   0  0  0  0  0  0           0  0  0
    2.5417   -9.8750    0.0000 C   0  0  0  0  0  0           0  0  0
   -1.5833   -5.2167    0.0000 C   0  0  0  0  0  0           0  0  0
    3.4375   -3.2875    0.0000 C   0  0  0  0  0  0           0  0  0
    6.6667  -11.2792    0.0000 C   0  0  0  0  0  0           0  0  0
    3.9542  -10.0750    0.0000 C   0  0  0  0  0  0           0  0  0
    0.0667   -7.7000    0.0000 C   0  0  0  0  0  0           0  0  0
    5.2542  -11.0875    0.0000 C   0  0  0  0  0  0           0  0  0
    3.4417   -4.7167    0.0000 C   0  0  0  0  0  0           0  0  0
    2.2042   -5.4292    0.0000 C   0  0  0  0  0  0           0  0  0
    0.6750   -8.2542    0.0000 C   0  0  0  0  0  0           0  0  0
   -3.1208   -2.2917    0.0000 C   0  0  0  0  0  0           0  0  0
   -3.1208   -1.4625    0.0000 C   0  0  0  0  0  0           0  0  0
    8.7292  -11.9750    0.0000 C   0  0  0  0  0  0           0  0  0
    9.6042  -10.8417    0.0000 C   0  0  0  0  0  0           0  0  0
    9.4917  -11.6667    0.0000 C   0  0  0  0  0  0           0  0  0
  2  1  1  0     0  0
  3  5  1  0     0  0
  4  1  2  0     0  0
  5  2  1  0     0  0
  6  4  1  0     0  0
  2  7  1  6     0  0
  8  6  1  0     0  0
  9  7  1  0     0  0
 10  4  1  0     0  0
 11 16  1  0     0  0
 12  9  1  0     0  0
 13 23  1  0     0  0
 14  5  2  0     0  0
 15 42  1  0     0  0
 16 20  1  0     0  0
 17 10  1  0     0  0
 18  9  2  0     0  0
 19 11  2  0     0  0
 20 17  2  0     0  0
 21 12  1  0     0  0
 22 15  2  0     0  0
 23 25  1  0     0  0
 24 11  1  0     0  0
 25 29  2  0     0  0
 26 15  1  0     0  0
 27  3  1  0     0  0
 28 21  2  0     0  0
 29 31  1  0     0  0
 30  6  2  0     0  0
 31 36  1  0     0  0
 32  8  2  0     0  0
 33 28  1  0     0  0
 34 10  2  0     0  0
 35 43  1  0     0  0
 36 47  1  0     0  0
 37 13  1  0     0  0
 38 13  1  0     0  0
 39 34  1  0     0  0
 40 49  1  0     0  0
 41 45  2  0     0  0
 42 52  1  0     0  0
 43 26  1  0     0  0
 44 39  2  0     0  0
 45 21  1  0     0  0
 46 40  2  0     0  0
 47 35  1  0     0  0
 48 24  1  0     0  0
 49 31  2  0     0  0
 50 41  1  0     0  0
 51 33  1  0     0  0
 52 48  1  0     0  0
 53 30  1  0     0  0
 54 53  2  0     0  0
 55 37  1  0     0  0
 56 38  1  0     0  0
 57 56  1  0     0  0
  8  3  1  0     0  0
 20 44  1  0     0  0
 32 54  1  0     0  0
 33 50  2  0     0  0
 46 25  1  0     0  0
 55 57  1  0     0  0
M  END