
  SciTegic09261414532D

 48 55  0  0  0  0            999 V2000
   20.2108   -3.8165    0.0000 N   0  0
   19.4251   -4.0238    0.0000 C   0  0
   19.3805   -4.8398    0.0000 N   0  0
   20.6581   -4.4992    0.0000 C   0  0
   20.1429   -5.1290    0.0000 C   0  0
   20.4310   -5.8880    0.0000 C   0  0
   21.2340   -6.0183    0.0000 C   0  0
   21.7481   -5.3836    0.0000 C   0  0
   21.4572   -4.6271    0.0000 C   0  0
   18.6651   -3.7289    0.0000 C   0  0
   18.5434   -2.9197    0.0000 C   0  0
   17.7832   -2.6220    0.0000 C   0  0
   17.1440   -3.1325    0.0000 C   0  0
   17.2700   -3.9442    0.0000 C   0  0
   18.0302   -4.2381    0.0000 C   0  0
   12.9457   -1.2423    0.0000 C   0  0
   12.9446   -2.0618    0.0000 C   0  0
   13.6526   -2.4708    0.0000 C   0  0
   13.6508   -0.8334    0.0000 C   0  0
   14.3594   -1.2387    0.0000 C   0  0
   14.3597   -2.0618    0.0000 C   0  0
   15.1427   -2.3160    0.0000 N   0  0
   15.6264   -1.6499    0.0000 C   0  0
   15.1422   -0.9841    0.0000 N   0  0
   15.3954   -3.0931    0.0000 C   0  0
   16.4403   -1.6482    0.0000 N   0  0
   16.8486   -2.3574    0.0000 C   0  0
   17.6650   -2.3574    0.0000 C   0  0
   18.0742   -1.6490    0.0000 C   0  0
   17.6609   -0.9391    0.0000 C   0  0
   16.8458   -0.9425    0.0000 C   0  0
   18.8913   -1.6477    0.0000 C   0  0
   19.3011   -2.3547    0.0000 O   0  0
   20.1183   -2.3533    0.0000 C   0  0
   14.8487   -3.7006    0.0000 C   0  0
   14.0512   -3.5295    0.0000 C   0  0
   13.5048   -4.1361    0.0000 C   0  0
   13.7574   -4.9142    0.0000 C   0  0
   14.5614   -5.0822    0.0000 C   0  0
   15.1043   -4.4743    0.0000 C   0  0
   20.5281   -3.0603    0.0000 C   0  0
   19.2988   -0.9393    0.0000 O   0  0
   21.3425   -3.0097    0.0000 C   0  0
   21.7944   -3.6917    0.0000 C   0  0
   22.6065   -3.6416    0.0000 C   0  0
   22.9729   -2.9108    0.0000 C   0  0
   22.5210   -2.2288    0.0000 C   0  0
   21.7026   -2.2776    0.0000 C   0  0
  1  2  1  0
  2  3  2  0
  3  5  1  0
  4  1  1  0
  4  5  2  0
  5  6  1  0
  6  7  2  0
  7  8  1  0
  8  9  2  0
  9  4  1  0
 10 11  2  0
 11 12  1  0
 12 13  2  0
 13 14  1  0
 14 15  2  0
 15 10  1  0
  2 10  1  0
 16 17  2  0
 17 18  1  0
 18 21  2  0
 20 19  2  0
 19 16  1  0
 20 21  1  0
 21 22  1  0
 22 23  1  0
 23 24  2  0
 24 20  1  0
 22 25  1  0
 26 27  1  0
 27 28  1  0
 28 29  1  0
 29 30  1  0
 30 31  1  0
 31 26  1  0
 23 26  1  0
 29 32  1  0
 32 33  1  0
 33 34  1  0
 25 35  1  0
 35 36  2  0
 36 37  1  0
 37 38  2  0
 38 39  1  0
 39 40  2  0
 40 35  1  0
 34 41  1  0
 41  1  1  0
 32 42  2  0
 43 44  1  0
 43 48  1  0
 44 45  1  0
 45 46  1  0
 46 47  1  0
 47 48  1  0
 41 43  1  0
M  END