
  SciTegic05071316162D

 18 19  0  0  0  0            999 V2000
   25.4842   -6.6819    0.0000 C   0  0
   25.4831   -7.5015    0.0000 C   0  0
   26.1911   -7.9104    0.0000 C   0  0
   26.9008   -7.5010    0.0000 C   0  0
   26.8980   -6.6783    0.0000 C   0  0
   26.1893   -6.2731    0.0000 C   0  0
   24.7764   -6.2735    0.0000 C   0  0  2  0  0  0
   24.0688   -6.6823    0.0000 C   0  0
   23.3610   -6.2739    0.0000 C   0  0
   22.6534   -6.6826    0.0000 N   0  0
   21.9074   -6.3465    0.0000 N   0  0
   21.3607   -6.9539    0.0000 C   0  0
   21.7695   -7.6616    0.0000 N   0  0
   22.5688   -7.4914    0.0000 C   0  0
   24.7762   -5.4563    0.0000 C   0  0
   25.4838   -5.0476    0.0000 C   0  0
   27.6091   -7.9085    0.0000 O   0  0
   28.3162   -7.4988    0.0000 C   0  0
  1  2  2  0
  2  3  1  0
  3  4  2  0
  4  5  1  0
  5  6  2  0
  6  1  1  0
  1  7  1  0
  7  8  1  0
  8  9  1  0
  9 10  1  0
 10 11  1  0
 11 12  2  0
 12 13  1  0
 13 14  2  0
 14 10  1  0
  7 15  1  6
 15 16  1  0
  4 17  1  0
 17 18  1  0
M  END