
          11280714582D 1   1.00000     0.00000     0

 33 37  0     0  0            999 V2000
    2.8917   -2.1167    0.0000 C   0  0  0  0  0  0           0  0  0
    2.1750   -6.6500    0.0000 C   0  0  0  0  0  0           0  0  0
    2.1792   -1.7042    0.0000 N   0  0  0  0  0  0           0  0  0
    1.4167   -6.9792    0.0000 N   0  0  0  0  0  0           0  0  0
    0.8667   -6.3667    0.0000 N   0  0  0  0  0  0           0  0  0
    3.6042   -1.7000    0.0000 C   0  0  0  0  0  0           0  0  0
    2.0875   -5.8292    0.0000 N   0  0  0  0  0  0           0  0  0
    1.2792   -5.6542    0.0000 N   0  0  0  0  0  0           0  0  0
    2.8917   -0.4625    0.0000 N   0  0  0  0  0  0           0  0  0
    3.6042   -0.8750    0.0000 C   0  0  0  0  0  0           0  0  0
    2.8917   -7.0542    0.0000 C   0  0  0  0  0  0           0  0  0
    2.1792   -0.8750    0.0000 C   0  0  0  0  0  0           0  0  0
    3.6042   -6.6417    0.0000 C   0  0  0  0  0  0           0  0  0
    2.8917   -2.9417    0.0000 N   0  0  0  0  0  0           0  0  0
    3.6042   -5.8250    0.0000 C   0  0  0  0  0  0           0  0  0
    4.3250   -2.1125    0.0000 C   0  0  0  0  0  0           0  0  0
    2.8917   -5.4125    0.0000 C   0  0  0  0  0  0           0  0  0
    4.3250   -5.4042    0.0000 C   0  0  0  0  0  0           0  0  0
    3.6042   -3.3542    0.0000 C   0  0  0  0  0  0           0  0  0
    3.6042   -4.1792    0.0000 C   0  0  0  0  0  0           0  0  0
    2.8917   -4.5875    0.0000 C   0  0  0  0  0  0           0  0  0
    4.3167   -4.5875    0.0000 C   0  0  0  0  0  0           0  0  0
    4.3167   -0.4542    0.0000 C   0  0  0  0  0  0           0  0  0
    4.3250   -2.9292    0.0000 O   0  0  0  0  0  0           0  0  0
    2.8917   -7.8792    0.0000 C   0  0  0  0  0  0           0  0  0
    4.3167   -7.0542    0.0000 C   0  0  0  0  0  0           0  0  0
    1.4667   -0.4667    0.0000 C   0  0  0  0  0  0           0  0  0
    5.0292   -0.8667    0.0000 C   0  0  0  0  0  0           0  0  0
    5.0375   -1.6917    0.0000 C   0  0  0  0  0  0           0  0  0
    5.0375   -3.3417    0.0000 C   0  0  0  0  0  0           0  0  0
    1.4667    0.3583    0.0000 C   0  0  0  0  0  0           0  0  0
    3.6042   -8.2917    0.0000 C   0  0  0  0  0  0           0  0  0
    4.3250   -7.8792    0.0000 C   0  0  0  0  0  0           0  0  0
  2 11  1  0     0  0
  3  1  1  0     0  0
  4  2  1  0     0  0
  5  4  2  0     0  0
  6  1  2  0     0  0
  7  2  2  0     0  0
  8  7  1  0     0  0
  9 10  2  0     0  0
 10  6  1  0     0  0
 11 13  2  0     0  0
 12  3  2  0     0  0
 13 15  1  0     0  0
 14  1  1  0     0  0
 15 18  1  0     0  0
 16  6  1  0     0  0
 17 21  1  0     0  0
 18 22  2  0     0  0
 19 14  1  0     0  0
 20 19  1  0     0  0
 21 20  2  0     0  0
 22 20  1  0     0  0
 23 10  1  0     0  0
 24 16  1  0     0  0
 25 11  1  0     0  0
 26 13  1  0     0  0
 27 12  1  0     0  0
 28 29  1  0     0  0
 29 16  2  0     0  0
 30 24  1  0     0  0
 31 27  1  0     0  0
 32 33  1  0     0  0
 33 26  2  0     0  0
 12  9  1  0     0  0
 23 28  2  0     0  0
 15 17  2  0     0  0
 32 25  2  0     0  0
  5  8  1  0     0  0
M  END