
  SciTegic03291108562D

 14 15  0  0  0  0            999 V2000
   -0.9628   -0.7241    0.0000 S   0  0
    0.7596    2.8629    0.0000 F   0  0
   -0.0654    2.0379    0.0000 F   0  0
    1.5846    2.0379    0.0000 F   0  0
    1.4271    0.7279    0.0000 N   0  0
    1.1721   -0.0567    0.0000 N   0  0
    0.7596    1.2129    0.0000 C   0  0
    0.7596    2.0379    0.0000 C   0  0
    0.3471   -0.0567    0.0000 C   0  0
    0.0922    0.7279    0.0000 C   0  0
   -0.1378   -0.7241    0.0000 C   0  0
    0.1171   -1.5088    0.0000 C   0  0
   -1.2177   -1.5088    0.0000 C   0  0
   -0.5503   -1.9937    0.0000 C   0  0
  1 11  1  0
  1 13  1  0
  2  8  1  0
  3  8  1  0
  4  8  1  0
  5  6  1  0
  5  7  2  0
  6  9  1  0
  7  8  1  0
  7 10  1  0
  9 10  2  0
  9 11  1  0
 11 12  2  0
 12 14  1  0
 13 14  2  0
M  END