
  SciTegic12191613312D

 30 33  0  0  0  0            999 V2000
    2.5987   -1.5004    0.0000 C   0  0  2  0  0  0
    3.2676   -2.7548    0.0000 C   0  0  2  0  0  0
    4.0197   -1.4569    0.0000 C   0  0  1  0  0  0
    1.2990   -0.7500    0.0000 C   0  0
    3.2411   -4.2553    0.0000 C   0  0
    1.2990    0.7500    0.0000 C   0  0
    0.0000    1.5000    0.0000 C   0  0
   -1.2990    0.7500    0.0000 C   0  0
   -1.2990   -0.7500    0.0000 C   0  0
    0.0000   -1.5000    0.0000 C   0  0
    2.3018   -5.3980    0.0000 C   0  0
    2.8275   -6.8029    0.0000 C   0  0
    4.3070   -7.0501    0.0000 C   0  0
    5.2608   -5.8924    0.0000 C   0  0
    4.7351   -4.4875    0.0000 C   0  0
    5.3476   -2.1783    0.0000 C   0  0
    6.3780   -1.5632    0.0000 O   0  0
    5.3699   -3.6789    0.0000 N   0  0
    6.4175   -4.2641    0.0000 O   0  0
   -2.5987    1.5004    0.0000 C   0  0
   -2.6012    3.0004    0.0000 N   0  0
   -3.9015    3.7484    0.0000 C   0  0
   -5.1993    2.9963    0.0000 C   0  0
   -5.1969    1.4963    0.0000 C   0  0
   -3.8967    0.7484    0.0000 N   0  0
   -6.5018    3.7420    0.0000 O   0  0
   -7.7993    2.9876    0.0000 C   0  0
   -8.8407    3.5838    0.0000 F   0  0
   -7.7953    1.7876    0.0000 F   0  0
    4.0164   -0.2569    0.0000 F   0  0
  2  1  1  0
  3  2  1  0
  1  3  1  0
  1  4  1  1
  2  5  1  6
  4  6  2  0
  6  7  1  0
  7  8  2  0
  8  9  1  0
  9 10  2  0
 10  4  1  0
  5 11  2  0
 11 12  1  0
 12 13  2  0
 13 14  1  0
 14 15  2  0
 15  5  1  0
  3 16  1  6
 16 17  2  0
 16 18  1  0
 18 19  1  0
 20 21  2  0
 21 22  1  0
 22 23  2  0
 23 24  1  0
 24 25  2  0
 25 20  1  0
  8 20  1  0
 23 26  1  0
 26 27  1  0
 27 28  1  0
 27 29  1  0
  3 30  1  0
M  END