
          08180812492D 1   1.00000     0.00000     0

 29 31  0     0  0            999 V2000
    0.0694  -16.5291    0.0000 C   0  0  0  0  0  0           0  0  0
    0.0682  -17.3565    0.0000 C   0  0  0  0  0  0           0  0  0
    0.7831  -17.7694    0.0000 C   0  0  0  0  0  0           0  0  0
    1.4995  -17.3560    0.0000 C   0  0  0  0  0  0           0  0  0
    1.4966  -16.5255    0.0000 C   0  0  0  0  0  0           0  0  0
    0.7813  -16.1164    0.0000 C   0  0  0  0  0  0           0  0  0
   -0.6466  -17.7684    0.0000 C   0  0  0  0  0  0           0  0  0
   -1.3607  -17.3554    0.0000 N   0  0  3  0  0  0           0  0  0
   -0.6472  -18.5934    0.0000 O   0  0  0  0  0  0           0  0  0
   -1.3607  -16.5307    0.0000 C   0  0  0  0  0  0           0  0  0
   -2.0707  -16.1177    0.0000 C   0  0  0  0  0  0           0  0  0
   -2.7879  -16.5262    0.0000 N   0  0  3  0  0  0           0  0  0
   -2.7905  -17.3521    0.0000 C   0  0  0  0  0  0           0  0  0
   -2.0760  -17.7697    0.0000 C   0  0  0  0  0  0           0  0  0
    2.2096  -16.1103    0.0000 O   0  0  0  0  0  0           0  0  0
    2.2064  -15.2853    0.0000 C   0  0  0  0  0  0           0  0  0
    2.9211  -14.8749    0.0000 C   0  0  0  0  0  0           0  0  0
    2.9184  -14.0507    0.0000 C   0  0  0  0  0  0           0  0  0
    2.2018  -13.6401    0.0000 C   0  0  0  0  0  0           0  0  0
    1.4865  -14.0597    0.0000 C   0  0  0  0  0  0           0  0  0
    1.4928  -14.8826    0.0000 C   0  0  0  0  0  0           0  0  0
    2.2146  -17.7674    0.0000 C   0  0  0  0  0  0           0  0  0
    2.9284  -17.3538    0.0000 N   0  0  0  0  0  0           0  0  0
    3.6436  -17.7652    0.0000 C   0  0  0  0  0  0           0  0  0
   -3.5005  -16.1104    0.0000 C   0  0  3  0  0  0           0  0  0
   -3.4967  -15.2854    0.0000 C   0  0  0  0  0  0           0  0  0
   -4.2168  -16.5196    0.0000 C   0  0  0  0  0  0           0  0  0
    3.6315  -13.6359    0.0000 O   0  0  0  0  0  0           0  0  0
    4.3473  -14.0460    0.0000 C   0  0  0  0  0  0           0  0  0
 13 14  1  0     0  0
  2  7  1  0     0  0
  5 15  1  0     0  0
  3  4  2  0     0  0
 15 16  1  0     0  0
  7  8  1  0     0  0
 16 17  2  0     0  0
 17 18  1  0     0  0
  7  9  2  0     0  0
 18 19  2  0     0  0
  8 10  1  0     0  0
 19 20  1  0     0  0
  4  5  1  0     0  0
 20 21  2  0     0  0
 21 16  1  0     0  0
  2  3  1  0     0  0
  4 22  1  0     0  0
  5  6  2  0     0  0
 22 23  1  0     0  0
  6  1  1  0     0  0
 23 24  1  0     0  0
  1  2  2  0     0  0
 12 25  1  0     0  0
  8 14  1  0     0  0
 25 26  1  0     0  0
 10 11  1  0     0  0
 25 27  1  0     0  0
 11 12  1  0     0  0
 18 28  1  0     0  0
 12 13  1  0     0  0
 28 29  1  0     0  0
M  END