
  SciTegic05311213042D

 34 38  0  0  0  0            999 V2000
   12.2343   -5.4299    0.0000 C   0  0
   11.4448   -5.6878    0.0000 C   0  0
   11.4487   -6.5165    0.0000 C   0  0
   12.2380   -6.7696    0.0000 O   0  0
   12.7231   -6.0975    0.0000 C   0  0
   10.7777   -5.2072    0.0000 C   0  0
   10.8629   -4.3858    0.0000 C   0  0
   10.1950   -3.9031    0.0000 C   0  0
    9.4416   -4.2409    0.0000 N   0  0
    9.3601   -5.0659    0.0000 C   0  0
   10.0290   -5.5448    0.0000 C   0  0
   10.7843   -7.0047    0.0000 C   0  0
   10.0291   -6.6707    0.0000 C   0  0
    9.3642   -7.1577    0.0000 C   0  0
   10.8751   -7.8210    0.0000 C   0  0
   10.2135   -8.3100    0.0000 C   0  0
    9.4489   -7.9783    0.0000 C   0  0
    8.8972   -8.6030    0.0000 C   0  0
    9.3208   -9.3209    0.0000 C   0  0
   10.1344   -9.1396    0.0000 C   0  0
    8.0760   -8.5247    0.0000 N   0  0
    7.5977   -9.1965    0.0000 O   0  0
   13.5481   -6.0946    0.0000 C   0  0
   13.9630   -6.8077    0.0000 C   0  0
   14.7880   -6.8049    0.0000 C   0  0
   15.1981   -6.0889    0.0000 C   0  0
   14.7831   -5.3759    0.0000 C   0  0
   13.9581   -5.3787    0.0000 C   0  0
   16.0231   -6.0861    0.0000 O   0  0
   16.4356   -5.3716    0.0000 C   0  0
   17.2606   -5.3716    0.0000 C   0  0
   17.6731   -4.6572    0.0000 N   0  0
   18.4981   -4.6572    0.0000 C   0  0
   17.2606   -3.9427    0.0000 C   0  0
 13 14  1  0
 14 17  2  0
  1  2  1  0
 16 15  2  0
 15 12  1  0
  3 12  1  0
 16 17  1  0
  7  8  1  0
  3  4  1  0
  8  9  2  0
  4  5  1  0
  9 10  1  0
 17 18  1  0
 18 19  1  0
 19 20  1  0
 20 16  1  0
  5  1  2  0
 18 21  2  0
 10 11  2  0
 21 22  1  0
 11  6  1  0
  2  6  1  0
  2  3  2  0
 12 13  2  0
  6  7  2  0
  5 23  1  0
 23 24  1  0
 23 28  2  0
 24 25  2  0
 25 26  1  0
 26 27  2  0
 27 28  1  0
 26 29  1  0
 29 30  1  0
 30 31  1  0
 31 32  1  0
 32 33  1  0
 32 34  1  0
M  END