
          11280714542D 1   1.00000     0.00000     0

 46 50  0     0  0            999 V2000
    6.6167   -4.1167    0.0000 C   0  0  0  0  0  0           0  0  0
   -0.2958   -3.7625    0.0000 N   0  0  3  0  0  0           0  0  0
    7.3792   -4.5625    0.0000 N   0  0  0  0  0  0           0  0  0
   -1.1750   -3.7625    0.0000 C   0  0  0  0  0  0           0  0  0
    1.4750   -3.7667    0.0000 N   0  0  3  0  0  0           0  0  0
    8.1500   -4.1250    0.0000 C   0  0  0  0  0  0           0  0  0
    5.8542   -4.5542    0.0000 C   0  0  0  0  0  0           0  0  0
    2.7917   -5.4167    0.0000 C   0  0  3  0  0  0           0  0  0
    3.5500   -5.8625    0.0000 O   0  0  0  0  0  0           0  0  0
    2.7917   -4.5292    0.0000 C   0  0  0  0  0  0           0  0  0
   11.9542   -5.4875    0.0000 C   0  0  0  0  0  0           0  0  0
    6.6250   -3.2292    0.0000 O   0  0  0  0  0  0           0  0  0
    0.1417   -2.9917    0.0000 C   0  0  0  0  0  0           0  0  0
    0.1500   -4.5250    0.0000 C   0  0  0  0  0  0           0  0  0
   -1.6208   -3.0000    0.0000 C   0  0  0  0  0  0           0  0  0
    8.9042   -4.5750    0.0000 C   0  0  0  0  0  0           0  0  0
   11.9667   -4.6042    0.0000 O   0  0  0  0  0  0           0  0  0
    2.3542   -3.7667    0.0000 C   0  0  0  0  0  0           0  0  0
    2.0167   -5.8500    0.0000 C   0  0  0  0  0  0           0  0  0
    5.0792   -4.1042    0.0000 C   0  0  0  0  0  0           0  0  0
    5.8417   -5.4417    0.0000 C   0  0  0  0  0  0           0  0  0
    1.0292   -4.5292    0.0000 C   0  0  0  0  0  0           0  0  0
    1.0292   -2.9917    0.0000 C   0  0  0  0  0  0           0  0  0
    4.3167   -5.4250    0.0000 C   0  0  0  0  0  0           0  0  0
   12.7167   -5.9292    0.0000 O   0  0  0  0  0  0           0  0  0
    5.0792   -5.8750    0.0000 C   0  0  0  0  0  0           0  0  0
    4.3167   -4.5417    0.0000 C   0  0  0  0  0  0           0  0  0
   -1.1750   -2.2292    0.0000 O   0  0  0  0  0  0           0  0  0
    8.9000   -5.4542    0.0000 O   0  0  0  0  0  0           0  0  0
   -1.6208   -4.5250    0.0000 C   0  0  0  0  0  0           0  0  0
    8.1500   -3.2500    0.0000 C   0  0  0  0  0  0           0  0  0
   11.1917   -5.9167    0.0000 C   0  0  0  0  0  0           0  0  0
   -2.5000   -3.0042    0.0000 C   0  0  0  0  0  0           0  0  0
    9.6750   -4.1292    0.0000 C   0  0  0  0  0  0           0  0  0
    1.2625   -5.4000    0.0000 C   0  0  0  0  0  0           0  0  0
    2.0167   -6.7292    0.0000 C   0  0  0  0  0  0           0  0  0
    9.6542   -5.9042    0.0000 C   0  0  0  0  0  0           0  0  0
   -1.6208   -1.4667    0.0000 C   0  0  0  0  0  0           0  0  0
   10.4292   -5.4667    0.0000 C   0  0  0  0  0  0           0  0  0
   -2.4958   -4.5250    0.0000 C   0  0  0  0  0  0           0  0  0
    8.9125   -2.8042    0.0000 C   0  0  0  0  0  0           0  0  0
    1.2542   -7.1667    0.0000 C   0  0  0  0  0  0           0  0  0
   -2.9375   -3.7667    0.0000 C   0  0  0  0  0  0           0  0  0
    9.6792   -3.2542    0.0000 C   0  0  0  0  0  0           0  0  0
    0.4917   -5.8292    0.0000 C   0  0  0  0  0  0           0  0  0
    0.4917   -6.7167    0.0000 C   0  0  0  0  0  0           0  0  0
  2 13  1  0     0  0
  3  1  1  0     0  0
  4  2  1  0     0  0
  5 18  1  0     0  0
  6  3  1  0     0  0
  7  1  1  0     0  0
  8  9  1  0     0  0
  9 24  1  0     0  0
 10  8  1  0     0  0
 11 32  1  0     0  0
 12  1  2  0     0  0
 13 23  1  0     0  0
 14 22  1  0     0  0
 15  4  2  0     0  0
 16  6  2  0     0  0
 17 11  2  0     0  0
 18 10  1  0     0  0
 19  8  1  0     0  0
 20  7  1  0     0  0
 21  7  2  0     0  0
 22  5  1  0     0  0
 23  5  1  0     0  0
 24 26  2  0     0  0
 25 11  1  0     0  0
 26 21  1  0     0  0
 27 20  2  0     0  0
 28 15  1  0     0  0
 29 16  1  0     0  0
 30  4  1  0     0  0
 31  6  1  0     0  0
 32 39  1  0     0  0
 33 15  1  0     0  0
 34 16  1  0     0  0
 35 19  2  0     0  0
 36 19  1  0     0  0
 37 29  1  0     0  0
 38 28  1  0     0  0
 39 37  1  0     0  0
 40 30  2  0     0  0
 41 31  2  0     0  0
 42 36  2  0     0  0
 43 40  1  0     0  0
 44 41  1  0     0  0
 45 35  1  0     0  0
 46 42  1  0     0  0
 24 27  1  0     0  0
 44 34  2  0     0  0
 46 45  2  0     0  0
 14  2  1  0     0  0
 43 33  2  0     0  0
M  END