
  SciTegic04091415222D

 23 25  0  0  0  0            999 V2000
    9.3205   -9.3358    0.0000 C   0  0
    8.6087   -9.7444    0.0000 C   0  0
    8.6087  -10.5657    0.0000 C   0  0
    9.3205  -10.9784    0.0000 C   0  0
   10.0282  -10.5657    0.0000 C   0  0
   10.0282   -9.7444    0.0000 C   0  0
   10.7400   -9.3358    0.0000 C   0  0
   11.4519   -9.7444    0.0000 C   0  0
   11.4519  -10.5657    0.0000 C   0  0
   10.7400  -10.9784    0.0000 C   0  0
   10.7400  -11.7969    0.0000 O   0  0
   12.1638  -10.9784    0.0000 C   0  0
   12.8755  -10.5657    0.0000 C   0  0
   12.8755   -9.7444    0.0000 C   0  0
   12.1638   -9.3358    0.0000 C   0  0
   12.1638   -8.5173    0.0000 O   0  0
   13.5849  -10.9770    0.0000 C   0  0
   14.2943  -10.5657    0.0000 O   0  0
   14.9996  -10.9770    0.0000 C   0  0
   15.7090  -10.5657    0.0000 C   0  0
   14.9996  -11.7955    0.0000 O   0  0
   10.7400   -8.5173    0.0000 O   0  0
    9.3205   -8.5173    0.0000 O   0  0
  1  2  2  0
  2  3  1  0
  3  4  2  0
  4  5  1  0
  5  6  2  0
  6  1  1  0
  7  6  1  0
  8  7  1  0
  9  8  2  0
 10  9  1  0
  5 10  1  0
 10 11  2  0
  9 12  1  0
 12 13  2  0
 13 14  1  0
 14 15  2  0
 15  8  1  0
 15 16  1  0
 13 17  1  0
 17 18  1  0
 18 19  1  0
 19 20  1  0
 19 21  2  0
  7 22  2  0
  1 23  1  0
M  END