
  SciTegic01161211252D

 25 27  0  0  0  0            999 V2000
   -4.7804    0.7562    0.0000 C   0  0
   -4.7804   -0.0734    0.0000 C   0  0
   -4.0659   -0.4859    0.0000 C   0  0
   -3.3469   -0.0734    0.0000 C   0  0
   -3.3469    0.7562    0.0000 C   0  0
   -4.0659    1.1734    0.0000 C   0  0
   -2.6330   -0.4869    0.0000 C   0  0
   -1.9180   -0.0753    0.0000 C   0  0
   -1.2071   -0.4921    0.0000 C   0  0
   -0.4942   -0.0841    0.0000 N   0  0
   -0.4888    0.7412    0.0000 C   0  0
   -1.2026    1.1569    0.0000 C   0  0
   -1.9217    0.7472    0.0000 N   0  0
   -1.1987    1.9819    0.0000 O   0  0
   -1.2115   -1.3171    0.0000 O   0  0
    0.2277    1.1500    0.0000 C   0  0
    0.9395    0.7338    0.0000 C   0  0
    0.9199   -0.0904    0.0000 N   0  0
    1.6969   -0.3678    0.0000 C   0  0
    2.2008    0.2854    0.0000 N   0  0
    1.7352    0.9665    0.0000 C   0  0
    2.1404    1.6821    0.0000 C   0  0
    2.9654    1.6890    0.0000 C   0  0
    1.7219    2.3930    0.0000 C   0  0
    2.5484    2.3971    0.0000 C   0  0
 10 11  1  0
 11 12  1  0
 12 13  1  0
 12 14  2  0
  4  7  1  0
  9 15  2  0
  1  2  1  0
 11 16  2  0
  7  8  2  0
 16 17  1  0
 17 18  1  0
  8  9  1  0
  1  6  2  0
  2  3  2  0
  3  4  1  0
 18 19  2  0
 19 20  1  0
 20 21  1  0
 21 17  2  0
  4  5  2  0
 21 22  1  0
  5  6  1  0
 22 23  1  0
  8 13  1  0
 22 24  1  0
  9 10  1  0
 22 25  1  0
M  END