
  SciTegic07101214422D

 22 24  0  0  0  0            999 V2000
    7.1944  -13.0416    0.0000 C   0  0
    7.1932  -13.8690    0.0000 C   0  0
    7.9081  -14.2819    0.0000 N   0  0
    8.6245  -13.8685    0.0000 C   0  0
    8.6216  -13.0380    0.0000 N   0  0
    7.9063  -12.6289    0.0000 N   0  0
    9.3396  -14.2799    0.0000 N   0  0
    6.4798  -12.6293    0.0000 C   0  0
    6.4784  -14.2809    0.0000 C   0  0
    6.4831  -11.8034    0.0000 C   0  0
    5.7693  -11.3911    0.0000 C   0  0
    5.0540  -11.8038    0.0000 N   0  0
    5.0568  -12.6331    0.0000 C   0  0
    5.7712  -13.0416    0.0000 C   0  0
    5.7659  -13.8664    0.0000 C   0  0
    5.0516  -14.2777    0.0000 C   0  0
    5.0505  -15.1035    0.0000 C   0  0
    5.7697  -15.5165    0.0000 C   0  0
    6.4811  -15.1028    0.0000 C   0  0
    5.7696  -10.5661    0.0000 C   0  0
    4.3439  -13.0483    0.0000 C   0  0
    4.3363  -15.5164    0.0000 F   0  0
 10 11  1  0
  5  6  2  0
 11 12  2  0
  6  1  1  0
 12 13  1  0
  1  2  2  0
 13 14  2  0
 14  8  1  0
  4  7  1  0
  9 15  2  0
  3  4  2  0
 15 16  1  0
  1  8  1  0
 16 17  2  0
 17 18  1  0
  2  9  1  0
 18 19  2  0
 19  9  1  0
  4  5  1  0
 11 20  1  0
  8 10  2  0
 13 21  1  0
  2  3  1  0
 17 22  1  0
M  END