
  SciTegic06051313522D

 48 51  0  0  0  0            999 V2000
    4.7077  -13.9170    0.0000 C   0  0
    4.7066  -14.7365    0.0000 C   0  0
    5.4146  -15.1455    0.0000 C   0  0
    6.1243  -14.7360    0.0000 C   0  0
    6.1215  -13.9134    0.0000 C   0  0
    5.4129  -13.5081    0.0000 C   0  0
    6.8327  -15.1435    0.0000 Cl  0  0
    3.9999  -13.5086    0.0000 O   0  0
    3.9997  -12.6914    0.0000 C   0  0
    3.9986  -15.1445    0.0000 N   0  0
    3.9979  -15.9617    0.0000 C   0  0
    3.2899  -16.3698    0.0000 C   0  0
    4.7053  -16.3709    0.0000 O   0  0
    3.2892  -17.1870    0.0000 S   0  0
    2.5812  -17.5950    0.0000 C   0  0
    1.8757  -17.1818    0.0000 N   0  0
    1.1681  -17.5891    0.0000 C   0  0
    1.1670  -18.4072    0.0000 C   0  0
    1.8794  -18.8162    0.0000 C   0  0
    2.5840  -18.4065    0.0000 C   0  0
    0.4594  -18.8133    0.0000 C   0  0
   -0.2550  -18.4051    0.0000 O   0  0
    0.4599  -19.6305    0.0000 O   0  0
    6.8276  -13.5021    0.0000 O   0  0
    7.5369  -13.9080    0.0000 C   0  0
    8.2431  -13.4968    0.0000 C   0  0
    8.9523  -13.9027    0.0000 C   0  0
    9.6585  -13.4915    0.0000 O   0  0
   10.3677  -13.8974    0.0000 C   0  0
   11.0739  -13.4861    0.0000 C   0  0
   11.7831  -13.8920    0.0000 C   0  0
   12.4893  -13.4808    0.0000 O   0  0
   13.1985  -13.8867    0.0000 C   0  0
   13.1992  -14.7023    0.0000 C   0  0
   13.9076  -15.1081    0.0000 C   0  0
   14.6147  -14.6968    0.0000 C   0  0
   14.6090  -13.8754    0.0000 C   0  0
   13.9001  -13.4732    0.0000 C   0  0
   13.9103  -15.9253    0.0000 F   0  0
   15.3098  -13.4630    0.0000 C   0  0
   16.0207  -13.8681    0.0000 N   0  0
   16.7250  -13.4551    0.0000 C   0  0
   16.7194  -12.6370    0.0000 C   0  0
   16.0038  -12.2338    0.0000 C   0  0
   15.3025  -12.6492    0.0000 C   0  0
   17.4248  -12.2210    0.0000 C   0  0
   18.1360  -12.6235    0.0000 O   0  0
   17.4178  -11.4038    0.0000 O   0  0
  1  2  2  0
  2  3  1  0
  3  4  2  0
  4  5  1  0
  5  6  2  0
  6  1  1  0
  4  7  1  0
  1  8  1  0
  8  9  1  0
  2 10  1  0
 10 11  1  0
 11 12  1  0
 11 13  2  0
 12 14  1  0
 14 15  1  0
 15 16  2  0
 16 17  1  0
 17 18  2  0
 18 19  1  0
 19 20  2  0
 20 15  1  0
 21 22  1  0
 21 23  2  0
 18 21  1  0
  5 24  1  0
 24 25  1  0
 25 26  1  0
 26 27  1  0
 27 28  1  0
 28 29  1  0
 29 30  1  0
 30 31  1  0
 31 32  1  0
 32 33  1  0
 33 34  2  0
 34 35  1  0
 35 36  2  0
 36 37  1  0
 37 38  2  0
 38 33  1  0
 35 39  1  0
 40 41  2  0
 41 42  1  0
 42 43  2  0
 43 44  1  0
 44 45  2  0
 45 40  1  0
 37 40  1  0
 46 47  1  0
 46 48  2  0
 43 46  1  0
M  END