
  CDK    9/16/09,9:58

 21 24  0  0  0  0  0  0  0  0999 V2000
   11.8510    2.5025    0.0000 C   0  0  0  0  0  0  0  0  0  0  0  0
   11.8496    1.6750    0.0000 C   0  0  0  0  0  0  0  0  0  0  0  0
   12.5627    1.2620    0.0000 C   0  0  0  0  0  0  0  0  0  0  0  0
   12.5606    2.9153    0.0000 C   0  0  0  0  0  0  0  0  0  0  0  0
   13.2788    2.5066    0.0000 C   0  0  0  0  0  0  0  0  0  0  0  0
   13.2793    1.6796    0.0000 C   0  0  0  0  0  0  0  0  0  0  0  0
   14.0660    1.4245    0.0000 N   0  0  0  0  0  0  0  0  0  0  0  0
   14.5518    2.0938    0.0000 C   0  0  0  0  0  0  0  0  0  0  0  0
   14.0651    2.7625    0.0000 N   0  0  0  0  0  0  0  0  0  0  0  0
   15.3768    2.0945    0.0000 N   0  0  0  0  0  0  0  0  0  0  0  0
   15.7897    1.3803    0.0000 C   0  0  0  0  0  0  0  0  0  0  0  0
   15.3773    0.6691    0.0000 C   0  0  0  0  0  0  0  0  0  0  0  0
   15.7869   -0.0429    0.0000 C   0  0  0  0  0  0  0  0  0  0  0  0
   16.6122   -0.0466    0.0000 C   0  0  0  0  0  0  0  0  0  0  0  0
   16.6153    1.3863    0.0000 C   0  0  0  0  0  0  0  0  0  0  0  0
   17.0233    0.6696    0.0000 C   0  0  0  0  0  0  0  0  0  0  0  0
   17.8461    0.6655    0.0000 C   0  0  0  0  0  0  0  0  0  0  0  0
   18.2619    1.3775    0.0000 C   0  0  0  0  0  0  0  0  0  0  0  0
   17.8488    2.0951    0.0000 C   0  0  0  0  0  0  0  0  0  0  0  0
   17.0273    2.0955    0.0000 C   0  0  0  0  0  0  0  0  0  0  0  0
   16.6160    2.8106    0.0000 Cl  0  0  0  0  0  0  0  0  0  0  0  0
  8 10  1  0  0  0  0 
  5  6  1  0  0  0  0 
 10 11  1  0  0  0  0 
 11 12  1  0  0  0  0 
  2  3  1  0  0  0  0 
  3  6  2  0  0  0  0 
 11 15  1  0  0  0  0 
 12 13  1  0  0  0  0 
 13 14  1  0  0  0  0 
 14 16  1  0  0  0  0 
  1  2  2  0  0  0  0 
  5  4  2  0  0  0  0 
 15 16  2  0  0  0  0 
  6  7  1  0  0  0  0 
 16 17  1  0  0  0  0 
  7  8  1  0  0  0  0 
 17 18  2  0  0  0  0 
  8  9  2  0  0  0  0 
 18 19  1  0  0  0  0 
  9  5  1  0  0  0  0 
 19 20  2  0  0  0  0 
 20 15  1  0  0  0  0 
  4  1  1  0  0  0  0 
 20 21  1  0  0  0  0 
M  END