
  Mrv0541 05211314572D          

 17 18  0  0  0  0            999 V2000
   -0.2711   -0.3224    0.0000 C   0  0  0  0  0  0  0  0  0  0  0  0
    0.2139   -0.9899    0.0000 C   0  0  0  0  0  0  0  0  0  0  0  0
    0.9985   -0.7349    0.0000 C   0  0  0  0  0  0  0  0  0  0  0  0
   -1.5086    0.3920    0.0000 C   0  0  0  0  0  0  0  0  0  0  0  0
    0.9985    0.0901    0.0000 C   0  0  0  0  0  0  0  0  0  0  0  0
    0.2139    0.3450    0.0000 C   0  0  0  0  0  0  0  0  0  0  0  0
   -2.3290    0.4783    0.0000 N   0  0  0  0  0  0  0  0  0  0  0  0
   -1.0961   -0.3224    0.0000 C   0  0  0  0  0  0  0  0  0  0  0  0
   -1.1730    1.1457    0.0000 N   0  0  0  0  0  0  0  0  0  0  0  0
   -0.0411   -1.7745    0.0000 C   0  0  0  0  0  0  0  0  0  0  0  0
    4.6667    0.0000    0.0000 Cl  0  0  0  0  0  0  0  0  0  0  0  0
   -2.5006    1.2852    0.0000 C   0  0  0  0  0  0  0  0  0  0  0  0
    1.7130   -1.1474    0.0000 C   0  0  0  0  0  0  0  0  0  0  0  0
    1.7130    0.5026    0.0000 C   0  0  0  0  0  0  0  0  0  0  0  0
   -1.7861    1.6977    0.0000 C   0  0  0  0  0  0  0  0  0  0  0  0
    2.4274   -0.7349    0.0000 C   0  0  0  0  0  0  0  0  0  0  0  0
    2.4274    0.0901    0.0000 C   0  0  0  0  0  0  0  0  0  0  0  0
  1  2  2  0  0  0  0
  2  3  1  0  0  0  0
  3  5  2  0  0  0  0
  1  6  1  0  0  0  0
  5  6  1  0  0  0  0
  4  7  2  0  0  0  0
  1  8  1  0  0  0  0
  4  8  1  0  0  0  0
  4  9  1  0  0  0  0
  2 10  1  0  0  0  0
  7 12  1  0  0  0  0
  3 13  1  0  0  0  0
  5 14  1  0  0  0  0
  9 15  1  0  0  0  0
 12 15  1  0  0  0  0
 13 16  2  0  0  0  0
 14 17  2  0  0  0  0
 16 17  1  0  0  0  0
M  END