
          11280715202D 1   1.00000     0.00000     0

 18 18  0     0  0            999 V2000
   -1.4500   -2.3417    0.0000 N   0  0  0  0  0  0           0  0  0
    2.8792   -2.3792    0.0000 C   0  0  0  0  0  0           0  0  0
    3.5917   -1.9542    0.0000 N   0  0  0  0  0  0           0  0  0
   -1.6000   -1.0250    0.0000 N   0  0  0  0  0  0           0  0  0
   -2.0083   -1.7417    0.0000 C   0  0  0  0  0  0           0  0  0
   -0.7000   -2.0000    0.0000 C   0  0  0  0  0  0           0  0  0
    3.5792   -1.1375    0.0000 C   0  0  3  0  0  0           0  0  0
    4.2917   -0.7167    0.0000 C   0  0  3  0  0  0           0  0  0
   -0.7875   -1.1917    0.0000 C   0  0  0  0  0  0           0  0  0
    2.8917   -3.2042    0.0000 O   0  0  0  0  0  0           0  0  0
    2.1625   -1.9750    0.0000 O   0  0  0  0  0  0           0  0  0
    0.0167   -2.4042    0.0000 C   0  0  0  0  0  0           0  0  0
    5.0042   -0.3000    0.0000 C   0  0  0  0  0  0           0  0  0
    3.8667   -0.0042    0.0000 C   0  0  0  0  0  0           0  0  0
    4.7125   -1.4250    0.0000 C   0  0  0  0  0  0           0  0  0
    2.8625   -0.7292    0.0000 C   0  0  0  0  0  0           0  0  0
    1.4542   -2.3917    0.0000 C   0  0  0  0  0  0           0  0  0
    0.7292   -1.9917    0.0000 C   0  0  0  0  0  0           0  0  0
  2 11  1  0     0  0
  3  2  1  0     0  0
  4  5  1  0     0  0
  5  1  2  0     0  0
  6  1  1  0     0  0
  7  3  1  0     0  0
  8  7  1  0     0  0
  9  6  2  0     0  0
 10  2  2  0     0  0
 11 17  1  0     0  0
 12  6  1  0     0  0
 13  8  1  0     0  0
 14  8  1  0     0  0
 15  8  1  0     0  0
 16  7  1  0     0  0
 17 18  1  0     0  0
 18 12  1  0     0  0
  9  4  1  0     0  0
M  END