
  SciTegic01161211242D

 43 45  0  0  0  0            999 V2000
    1.0205  -22.1054    0.0000 C   0  0  1  0  0  0
    1.0205  -22.9341    0.0000 C   0  0  2  0  0  0
    1.7323  -23.3442    0.0000 C   0  0  2  0  0  0
    2.4482  -22.9341    0.0000 C   0  0
    2.4482  -22.1054    0.0000 C   0  0  2  0  0  0
    1.7323  -21.6869    0.0000 O   0  0
    3.1600  -22.5219    0.0000 O   0  0
    2.8534  -21.3908    0.0000 C   0  0
    3.6820  -21.3795    0.0000 O   0  0
    2.4356  -20.6770    0.0000 O   0  5
    0.3033  -21.6964    0.0000 C   0  0  2  0  0  0
   -0.4144  -22.1118    0.0000 C   0  0  2  0  0  0
   -1.8418  -22.9477    0.0000 C   0  0
   -2.5596  -23.3632    0.0000 C   0  0
   -1.8455  -22.1190    0.0000 O   0  0
   -3.2718  -22.9484    0.0000 C   0  0
   -3.9889  -23.3628    0.0000 C   0  0
   -3.9859  -24.1928    0.0000 C   0  0
   -3.2610  -24.6017    0.0000 C   0  0
   -2.5526  -24.1837    0.0000 C   0  0
   -0.4145  -22.9372    0.0000 C   0  0
    0.3074  -24.1708    0.0000 C   0  0
   -0.4071  -24.5847    0.0000 O   0  0
    1.0280  -24.5816    0.0000 C   0  0
    0.9992  -21.2813    0.0000 H   0  0
    3.1553  -23.3464    0.0000 C   0  0
    3.8668  -23.7627    0.0000 C   0  0
    3.8575  -24.5860    0.0000 C   0  0
    4.5684  -25.0023    0.0000 C   0  0
    4.5765  -23.3528    0.0000 C   0  0
   -4.6970  -24.6100    0.0000 Cl  0  0
    5.2879  -23.7653    0.0000 C   0  0
    5.2825  -24.5915    0.0000 C   0  0
    5.9942  -25.0074    0.0000 C   0  0
    6.7116  -24.5983    0.0000 C   0  0
    6.7130  -23.7690    0.0000 C   0  0
    6.0009  -23.3568    0.0000 C   0  0
    4.9845  -20.2838    0.0000 Na  0  3
    0.3034  -20.8655    0.0000 O   0  0
   -1.1287  -21.6968    0.0000 O   0  0
   -1.1251  -23.3564    0.0000 N   0  0
    1.7360  -24.1665    0.0000 O   0  0
    0.3056  -23.3458    0.0000 N   0  0
 13 14  1  0
 13 15  2  0
 14 16  2  0
 16 17  1  0
 17 18  2  0
 18 19  1  0
 19 20  2  0
 20 14  1  0
 22 23  2  0
 22 24  1  0
  1 25  1  1
  7 26  1  0
 26 27  1  0
  1  2  1  0
 27 28  2  0
  1  6  1  0
 28 29  1  0
 29 33  2  0
  2  3  1  0
 32 30  2  0
 30 27  1  0
  3  4  1  0
 18 31  1  0
  4  5  1  0
  5  6  1  0
 32 33  1  0
  5  7  1  0
 33 34  1  0
  5  8  1  1
 34 35  2  0
  8  9  2  0
 35 36  1  0
  8 10  1  0
 36 37  2  0
 37 32  1  0
  1 11  1  0
 11 12  1  0
 12 21  1  0
 12 40  1  1
 41 13  1  0
 21 41  1  0
 11 39  1  6
  3 42  1  6
  2 43  1  1
 43 22  1  0
M  CHG  2  10  -1  38   1
M  END