
  CDK    9/16/09,9:42

 31 33  0  0  0  0  0  0  0  0999 V2000
    9.5852   -2.6000    0.0000 C   0  0  0  0  0  0  0  0  0  0  0  0
   10.3008   -2.1895    0.0000 C   0  0  0  0  0  0  0  0  0  0  0  0
   10.3031   -1.3645    0.0000 C   0  0  0  0  0  0  0  0  0  0  0  0
    9.5829   -3.4250    0.0000 N   0  0  0  0  0  0  0  0  0  0  0  0
    9.5829   -5.0750    0.0000 C   0  0  0  0  0  0  0  0  0  0  0  0
   10.2949   -4.6667    0.0000 N   0  0  0  0  0  0  0  0  0  0  0  0
   10.2949   -3.8417    0.0000 C   0  0  0  0  0  0  0  0  0  0  0  0
    8.8708   -4.6667    0.0000 C   0  0  0  0  0  0  0  0  0  0  0  0
    8.8709   -3.8417    0.0000 C   0  0  0  0  0  0  0  0  0  0  0  0
    8.0863   -3.5867    0.0000 N   0  0  0  0  0  0  0  0  0  0  0  0
    7.6013   -4.2541    0.0000 C   0  0  0  0  0  0  0  0  0  0  0  0
    8.0862   -4.9215    0.0000 N   0  0  0  0  0  0  0  0  0  0  0  0
    6.7807   -4.2564    0.0000 C   0  0  0  0  0  0  0  0  0  0  0  0
    6.3688   -3.5403    0.0000 C   0  0  0  0  0  0  0  0  0  0  0  0
    5.5446   -3.5399    0.0000 C   0  0  0  0  0  0  0  0  0  0  0  0
    5.1313   -4.2549    0.0000 C   0  0  0  0  0  0  0  0  0  0  0  0
    5.5482   -4.9717    0.0000 C   0  0  0  0  0  0  0  0  0  0  0  0
    6.3711   -4.9686    0.0000 C   0  0  0  0  0  0  0  0  0  0  0  0
    4.3063   -4.2560    0.0000 O   0  0  0  0  0  0  0  0  0  0  0  0
   11.0105   -3.4313    0.0000 O   0  0  0  0  0  0  0  0  0  0  0  0
    9.5829   -5.9000    0.0000 O   0  0  0  0  0  0  0  0  0  0  0  0
   11.0087   -5.0802    0.0000 C   0  0  0  0  0  0  0  0  0  0  0  0
   11.0075   -5.9052    0.0000 C   0  0  0  0  0  0  0  0  0  0  0  0
   11.7214   -6.3187    0.0000 C   0  0  0  0  0  0  0  0  0  0  0  0
    3.8929   -3.5420    0.0000 C   0  0  0  0  0  0  0  0  0  0  0  0
    3.0679   -3.5431    0.0000 C   0  0  0  0  0  0  0  0  0  0  0  0
    2.6533   -2.8289    0.0000 N   0  0  0  0  0  0  0  0  0  0  0  0
    2.6552   -4.2578    0.0000 O   0  0  0  0  0  0  0  0  0  0  0  0
    1.8283   -2.8307    0.0000 C   0  0  0  0  0  0  0  0  0  0  0  0
    1.4142   -2.1172    0.0000 C   0  0  0  0  0  0  0  0  0  0  0  0
    0.5892   -2.1191    0.0000 N   0  0  0  0  0  0  0  0  0  0  0  0
  5  6  1  0  0  0  0 
 15 16  2  0  0  0  0 
  6  7  1  0  0  0  0 
 16 17  1  0  0  0  0 
  7  4  1  0  0  0  0 
 17 18  2  0  0  0  0 
 18 13  1  0  0  0  0 
 11 13  1  0  0  0  0 
  8  9  2  0  0  0  0 
 16 19  1  0  0  0  0 
  7 20  2  0  0  0  0 
  2  3  1  0  0  0  0 
  5 21  2  0  0  0  0 
  1  4  1  0  0  0  0 
  6 22  1  0  0  0  0 
  1  2  1  0  0  0  0 
 22 23  1  0  0  0  0 
 23 24  1  0  0  0  0 
  9 10  1  0  0  0  0 
 10 11  2  0  0  0  0 
 19 25  1  0  0  0  0 
 11 12  1  0  0  0  0 
 25 26  1  0  0  0  0 
 12  8  1  0  0  0  0 
  9  4  1  0  0  0  0 
 26 27  1  0  0  0  0 
 26 28  2  0  0  0  0 
 13 14  2  0  0  0  0 
 27 29  1  0  0  0  0 
  8  5  1  0  0  0  0 
 29 30  1  0  0  0  0 
 14 15  1  0  0  0  0 
 30 31  1  0  0  0  0 
M  END