
  SciTegic10041313232D

 26 27  0  0  0  0            999 V2000
   -0.6662   -7.7837    0.0000 N   0  0
   -0.6662   -8.6087    0.0000 C   0  0
    0.0497   -9.0212    0.0000 C   0  0
    0.0497   -7.3712    0.0000 C   0  0
    0.7655   -7.7837    0.0000 C   0  0
    0.7655   -8.6087    0.0000 C   0  0
    1.4772   -7.3712    0.0000 C   0  0
    2.1931   -7.7837    0.0000 N   0  3
    2.2779   -8.6061    0.0000 C   0  0
    3.0840   -8.7784    0.0000 S   0  0
    3.4965   -8.0626    0.0000 C   0  0
    2.9475   -7.4503    0.0000 C   0  0
    3.1199   -6.6443    0.0000 C   0  0
    4.3188   -7.9777    0.0000 C   0  0
    4.8035   -8.6432    0.0000 C   0  0
    5.6258   -8.5584    0.0000 O   0  0
   -1.3779   -9.0212    0.0000 C   0  0
    0.0497   -6.5462    0.0000 N   0  0
    6.1106   -9.2280    0.0000 P   0  0
    6.5953   -9.8934    0.0000 O   0  0
    5.4410   -9.7085    0.0000 O   0  0
    6.7760   -8.7391    0.0000 O   0  0
    7.5304   -9.0766    0.0000 P   0  0
    7.8680   -8.3222    0.0000 O   0  0
    8.2849   -9.4142    0.0000 O   0  0
    7.1970   -9.8311    0.0000 O   0  0
  5  4  2  0
  4  1  1  0
  5  6  1  0
  9 10  1  0
 10 11  1  0
 11 12  2  0
 12  8  1  0
  2  3  1  0
 12 13  1  0
  3  6  2  0
 11 14  1  0
  5  7  1  0
 14 15  1  0
  1  2  2  0
 15 16  1  0
  7  8  1  0
  2 17  1  0
  8  9  2  0
  4 18  1  0
 16 19  1  0
 19 20  1  0
 19 21  2  0
 19 22  1  0
 22 23  1  0
 23 24  1  0
 23 25  1  0
 23 26  2  0
M  CHG  1   8   1
M  END