
          11290713132D 1   1.00000     0.00000     0

 71 75  0     1  0            999 V2000
   10.1848   -0.1187    0.0000 C   0  0  0  0  0  0           0  0  0
    9.4677    0.3159    0.0000 C   0  0  2  0  0  0           0  0  0
    8.7159   -0.9198    0.0000 C   0  0  0  0  0  0           0  0  0
    7.9748   -1.3195    0.0000 C   0  0  2  0  0  0           0  0  0
   10.0472   -3.4240    0.0000 C   0  0  0  0  0  0           0  0  0
    9.3247   -3.8242    0.0000 S   0  0  0  0  0  0           0  0  0
    8.6424   -3.4221    0.0000 S   0  0  0  0  0  0           0  0  0
   11.4965   -2.6187    0.0000 C   0  0  0  0  0  0           0  0  0
   10.7565   -3.8522    0.0000 C   0  0  1  0  0  0           0  0  0
    7.9225   -3.8202    0.0000 C   0  0  0  0  0  0           0  0  0
    7.2111   -3.3920    0.0000 C   0  0  0  0  0  0           0  0  0
    7.2249   -2.5439    0.0000 C   0  0  0  0  0  0           0  0  0
   11.5539   -0.9677    0.0000 C   0  0  0  0  0  0           0  0  0
   12.2180   -2.2254    0.0000 C   0  0  2  0  0  0           0  0  0
   11.5653   -0.1406    0.0000 C   0  0  2  0  0  0           0  0  0
   10.7394   -4.6755    0.0000 C   0  0  0  0  0  0           0  0  0
   10.7957   -2.1883    0.0000 O   0  0  0  0  0  0           0  0  0
   10.8274   -1.3610    0.0000 O   0  0  0  0  0  0           0  0  0
   10.1824   -0.9421    0.0000 O   0  0  0  0  0  0           0  0  0
    9.4165   -1.3506    0.0000 O   0  0  0  0  0  0           0  0  0
    6.5206   -2.1158    0.0000 O   0  0  0  0  0  0           0  0  0
   10.0203   -5.0775    0.0000 O   0  0  0  0  0  0           0  0  0
   11.4498   -5.0973    0.0000 N   0  0  3  0  0  0           0  0  0
    7.2714   -0.8900    0.0000 C   0  0  0  0  0  0           0  0  0
    7.2981   -0.0667    0.0000 C   0  0  0  0  0  0           0  0  0
    8.0201    0.3219    0.0000 C   0  0  0  0  0  0           0  0  0
    8.0432    1.1443    0.0000 C   0  0  0  0  0  0           0  0  0
    7.3432    1.5747    0.0000 C   0  0  0  0  0  0           0  0  0
    6.6136    1.1782    0.0000 C   0  0  0  0  0  0           0  0  0
    6.5959    0.3578    0.0000 C   0  0  0  0  0  0           0  0  0
    9.4901    1.1395    0.0000 C   0  0  0  0  0  0           0  0  0
   10.2119    1.5339    0.0000 C   0  0  0  0  0  0           0  0  0
   10.9172    1.0976    0.0000 C   0  0  0  0  0  0           0  0  0
   11.6383    1.4910    0.0000 C   0  0  0  0  0  0           0  0  0
   11.6615    2.3159    0.0000 C   0  0  0  0  0  0           0  0  0
   10.9548    2.7492    0.0000 C   0  0  0  0  0  0           0  0  0
   10.2340    2.3524    0.0000 C   0  0  0  0  0  0           0  0  0
   12.2880    0.2594    0.0000 C   0  0  0  0  0  0           0  0  0
   12.9208   -2.6557    0.0000 C   0  0  0  0  0  0           0  0  0
   13.6474   -2.2627    0.0000 C   0  0  0  0  0  0           0  0  0
   14.3502   -2.6932    0.0000 O   0  0  0  0  0  0           0  0  0
   11.5223   -5.9214    0.0000 C   0  0  1  0  0  0           0  0  0
   12.3288   -6.1026    0.0000 C   0  0  0  0  0  0           0  0  0
   12.7504   -5.3963    0.0000 C   0  0  0  0  0  0           0  0  0
   12.2090   -4.7739    0.0000 C   0  0  0  0  0  0           0  0  0
   10.9043   -6.4632    0.0000 C   0  0  0  0  0  0           0  0  0
   10.1227   -6.1936    0.0000 O   0  0  0  0  0  0           0  0  0
   11.8452   -7.5388    0.0000 C   0  0  2  0  0  0           0  0  0
   12.0045   -8.3500    0.0000 C   0  0  0  0  0  0           0  0  0
   12.4674   -6.9971    0.0000 C   0  0  0  0  0  0           0  0  0
   11.3853   -8.8934    0.0000 N   0  0  0  0  0  0           0  0  0
   12.7893   -8.6172    0.0000 O   0  0  0  0  0  0           0  0  0
   13.2450   -7.2623    0.0000 N   0  0  0  0  0  0           0  0  0
   12.4981    1.0617    0.0000 C   0  0  3  0  0  0           0  0  0
   13.2994    1.2791    0.0000 C   0  0  0  0  0  0           0  0  0
   13.5105    2.0774    0.0000 C   0  0  0  0  0  0           0  0  0
   12.9236    2.6639    0.0000 C   0  0  0  0  0  0           0  0  0
   12.1223    2.4464    0.0000 C   0  0  0  0  0  0           0  0  0
   11.9079    1.6425    0.0000 C   0  0  0  0  0  0           0  0  0
   10.6048   -8.6288    0.0000 C   0  0  0  0  0  0           0  0  0
    9.9853   -9.1725    0.0000 C   0  0  0  0  0  0           0  0  0
    9.2022   -8.9092    0.0000 N   0  0  0  0  0  0           0  0  0
   10.1439   -9.9822    0.0000 O   0  0  0  0  0  0           0  0  0
    8.7526   -0.0956    0.0000 N   0  0  0  0  0  0           0  0  0
    7.9465   -2.1440    0.0000 N   0  0  0  0  0  0           0  0  0
   11.4730   -3.4433    0.0000 N   0  0  0  0  0  0           0  0  0
   12.2558   -1.4012    0.0000 N   0  0  0  0  0  0           0  0  0
   10.8822    0.3220    0.0000 N   0  0  0  0  0  0           0  0  0
    7.3538    2.4020    0.0000 O   0  0  0  0  0  0           0  0  0
   13.6715   -1.4415    0.0000 N   0  0  0  0  0  0           0  0  0
   11.0643   -7.2726    0.0000 N   0  0  0  0  0  0           0  0  0
 13 15  1  0     0  0
  9 16  1  6     0  0
  8 17  2  0     0  0
 13 18  2  0     0  0
  1 19  2  0     0  0
  3 20  2  0     0  0
 12 21  2  0     0  0
 16 22  2  0     0  0
 16 23  1  0     0  0
  4 24  1  1     0  0
 24 25  1  0     0  0
 25 26  2  0     0  0
 26 27  1  0     0  0
 27 28  2  0     0  0
 28 29  1  0     0  0
 29 30  2  0     0  0
 30 25  1  0     0  0
  2 31  1  1     0  0
 31 32  1  0     0  0
 32 33  2  0     0  0
 33 34  1  0     0  0
 34 35  2  0     0  0
 35 36  1  0     0  0
 36 37  2  0     0  0
 37 32  1  0     0  0
 15 38  1  1     0  0
 14 39  1  1     0  0
 39 40  1  0     0  0
 40 41  2  0     0  0
 23 42  1  0     0  0
 42 43  1  0     0  0
 43 44  1  0     0  0
 44 45  1  0     0  0
 45 23  1  0     0  0
 42 46  1  1     0  0
 46 47  2  0     0  0
 48 49  1  0     0  0
 48 50  1  1     0  0
 49 51  1  0     0  0
 49 52  2  0     0  0
 50 53  1  0     0  0
 38 54  1  0     0  0
 54 55  1  0     0  0
  1  2  1  0     0  0
  4  3  1  0     0  0
 54 59  1  0     0  0
 55 56  1  0     0  0
 56 57  1  0     0  0
 57 58  1  0     0  0
 58 59  1  0     0  0
  5  6  1  0     0  0
 51 60  1  0     0  0
  6  7  1  0     0  0
 60 61  1  0     0  0
  5  9  1  0     0  0
 61 62  1  0     0  0
 61 63  2  0     0  0
 10 11  1  0     0  0
  7 10  1  0     0  0
 12 11  1  0     0  0
  8 14  1  0     0  0
 13 67  1  0     0  0
 67 14  1  0     0  0
 65  4  1  0     0  0
 65 12  1  0     0  0
 15 68  1  0     0  0
 68  1  1  0     0  0
  2 64  1  0     0  0
 64  3  1  0     0  0
 28 69  1  0     0  0
  8 66  1  0     0  0
 66  9  1  0     0  0
 40 70  1  0     0  0
 46 71  1  0     0  0
 71 48  1  0     0  0
M  END