
          11280715292D 1   1.00000     0.00000     0

 14 15  0     0  0            999 V2000
    3.5917   -1.6167    0.0000 N   0  0  3  0  0  0           0  0  0
    4.0750   -2.2875    0.0000 C   0  0  0  0  0  0           0  0  0
    2.8000   -1.8750    0.0000 C   0  0  0  0  0  0           0  0  0
    3.5875   -2.9625    0.0000 C   0  0  0  0  0  0           0  0  0
    2.7917   -2.7042    0.0000 C   0  0  0  0  0  0           0  0  0
    3.8417   -0.8292    0.0000 C   0  0  0  0  0  0           0  0  0
    4.6542   -0.6667    0.0000 C   0  0  0  0  0  0           0  0  0
    2.0792   -1.4625    0.0000 C   0  0  0  0  0  0           0  0  0
    2.0792   -3.1167    0.0000 C   0  0  0  0  0  0           0  0  0
    4.8667    0.1333    0.0000 C   0  0  3  0  0  0           0  0  0
    4.2792    0.7208    0.0000 C   0  0  0  0  0  0           0  0  0
    5.6625    0.3583    0.0000 C   0  0  0  0  0  0           0  0  0
    1.3667   -1.8750    0.0000 C   0  0  0  0  0  0           0  0  0
    1.3667   -2.7042    0.0000 C   0  0  0  0  0  0           0  0  0
  2  1  1  0     0  0
  3  1  1  0     0  0
  4  2  2  0     0  0
  5  3  1  0     0  0
  6  1  1  0     0  0
  7  6  1  0     0  0
  8  3  2  0     0  0
  9  5  2  0     0  0
 10  7  1  0     0  0
 11 10  1  0     0  0
 12 10  1  0     0  0
 13  8  1  0     0  0
 14 13  2  0     0  0
  5  4  1  0     0  0
  9 14  1  0     0  0
M  END