
          03140815512D 1   1.00000     0.00000     0

 31 33  0     0  0            999 V2000
    3.9250    1.1750    0.0000 N   0  0  3  0  0  0           0  0  0
    3.9250    0.3500    0.0000 C   0  0  0  0  0  0           0  0  0
    4.6370   -0.0583    0.0000 C   0  0  0  0  0  0           0  0  0
    5.3490    0.3500    0.0000 O   0  0  0  0  0  0           0  0  0
    5.3490    1.1750    0.0000 C   0  0  0  0  0  0           0  0  0
    4.6370    1.5917    0.0000 C   0  0  0  0  0  0           0  0  0
    3.2093    1.5854    0.0000 C   0  0  0  0  0  0           0  0  0
    3.2069    2.4104    0.0000 O   0  0  0  0  0  0           0  0  0
    2.4961    1.1708    0.0000 C   0  0  0  0  0  0           0  0  0
    1.7804    1.5812    0.0000 O   0  0  0  0  0  0           0  0  0
    1.0671    1.1666    0.0000 C   0  0  0  0  0  0           0  0  0
    0.3522    1.5804    0.0000 C   0  0  0  0  0  0           0  0  0
   -0.3606    1.1665    0.0000 C   0  0  0  0  0  0           0  0  0
   -0.3586    0.3406    0.0000 C   0  0  0  0  0  0           0  0  0
    0.3621   -0.0696    0.0000 C   0  0  0  0  0  0           0  0  0
    1.0719    0.3466    0.0000 C   0  0  0  0  0  0           0  0  0
   -1.0713   -0.0750    0.0000 S   0  0  3  0  0  0           0  0  0
   -1.7917   -0.4792    0.0000 N   0  0  0  0  0  0           0  0  0
   -0.6667   -0.7833    0.0000 O   0  0  0  0  0  0           0  0  0
   -1.4917    0.6458    0.0000 O   0  0  0  0  0  0           0  0  0
   -2.5010   -0.0580    0.0000 C   0  0  0  0  0  0           0  0  0
   -2.4892    0.7643    0.0000 C   0  0  0  0  0  0           0  0  0
   -3.1977    1.1854    0.0000 C   0  0  0  0  0  0           0  0  0
   -3.9182    0.7816    0.0000 C   0  0  0  0  0  0           0  0  0
   -3.9257   -0.0476    0.0000 C   0  0  0  0  0  0           0  0  0
   -3.2165   -0.4650    0.0000 C   0  0  0  0  0  0           0  0  0
   -4.6458   -0.4542    0.0000 C   0  0  3  0  0  0           0  0  0
   -5.3625   -0.8625    0.0000 F   0  0  0  0  0  0           0  0  0
   -5.0528    0.2635    0.0000 F   0  0  0  0  0  0           0  0  0
   -4.2407   -1.1728    0.0000 F   0  0  0  0  0  0           0  0  0
    1.7871   -0.0603    0.0000 C   0  0  0  0  0  0           0  0  0
  1  2  1  0     0  0
 15 16  2  0     0  0
 16 11  1  0     0  0
  7  8  2  0     0  0
 14 17  1  0     0  0
  1  6  1  0     0  0
 17 18  1  0     0  0
  7  9  1  0     0  0
 17 19  2  0     0  0
  2  3  1  0     0  0
 17 20  2  0     0  0
  9 10  1  0     0  0
 18 21  1  0     0  0
  3  4  1  0     0  0
 21 22  2  0     0  0
 10 11  1  0     0  0
 22 23  1  0     0  0
  4  5  1  0     0  0
 23 24  2  0     0  0
 11 12  2  0     0  0
 24 25  1  0     0  0
  5  6  1  0     0  0
 25 26  2  0     0  0
 26 21  1  0     0  0
 12 13  1  0     0  0
 25 27  1  0     0  0
 27 28  1  0     0  0
 13 14  2  0     0  0
 27 29  1  0     0  0
  1  7  1  0     0  0
 27 30  1  0     0  0
 14 15  1  0     0  0
 16 31  1  0     0  0
M  END