
  CDK    9/16/09,10:4

 29 30  0  0  0  0  0  0  0  0999 V2000
   10.6125    1.6875    0.0000 C   0  0  0  0  0  0  0  0  0  0  0  0
   11.3270    1.2750    0.0000 N   0  0  0  0  0  0  0  0  0  0  0  0
    9.8980    1.2750    0.0000 N   0  0  0  0  0  0  0  0  0  0  0  0
   10.6125    2.5125    0.0000 S   0  0  0  0  0  0  0  0  0  0  0  0
    9.1836    1.6875    0.0000 C   0  0  0  0  0  0  0  0  0  0  0  0
    8.4697    1.2719    0.0000 C   0  0  0  0  0  0  0  0  0  0  0  0
    7.7557    1.6837    0.0000 C   0  0  0  0  0  0  0  0  0  0  0  0
    7.7552    2.5096    0.0000 C   0  0  0  0  0  0  0  0  0  0  0  0
    8.4747    2.9219    0.0000 C   0  0  0  0  0  0  0  0  0  0  0  0
    9.1858    2.5077    0.0000 C   0  0  0  0  0  0  0  0  0  0  0  0
   12.0414    1.6875    0.0000 C   0  0  0  0  0  0  0  0  0  0  0  0
   12.7559    1.2750    0.0000 C   0  0  0  0  0  0  0  0  0  0  0  0
   13.4704    1.6875    0.0000 N   0  0  0  0  0  0  0  0  0  0  0  0
   14.1849    1.2750    0.0000 C   0  0  0  0  0  0  0  0  0  0  0  0
   14.8942    0.0365    0.0000 C   0  0  0  0  0  0  0  0  0  0  0  0
   15.6096    0.4491    0.0000 N   0  0  0  0  0  0  0  0  0  0  0  0
   15.6070    1.2783    0.0000 C   0  0  0  0  0  0  0  0  0  0  0  0
   14.8928    1.6870    0.0000 C   0  0  0  0  0  0  0  0  0  0  0  0
   14.8879    2.5137    0.0000 N   0  0  0  0  0  0  0  0  0  0  0  0
   14.1719    2.9236    0.0000 O   0  0  0  0  0  0  0  0  0  0  0  0
   15.6008    2.9288    0.0000 O   0  0  0  0  0  0  0  0  0  0  0  0
   14.1799    0.4494    0.0000 N   0  0  0  0  0  0  0  0  0  0  0  0
   14.8937   -0.7885    0.0000 N   0  0  0  0  0  0  0  0  0  0  0  0
   14.1790   -1.2006    0.0000 C   0  0  0  0  0  0  0  0  0  0  0  0
   15.6080   -1.2014    0.0000 C   0  0  0  0  0  0  0  0  0  0  0  0
   16.3227   -0.7893    0.0000 C   0  0  0  0  0  0  0  0  0  0  0  0
   13.4648   -0.7877    0.0000 C   0  0  0  0  0  0  0  0  0  0  0  0
   16.3200    1.6933    0.0000 C   0  0  0  0  0  0  0  0  0  0  0  0
    7.0414    1.2708    0.0000 Br  0  0  0  0  0  0  0  0  0  0  0  0
 14 22  2  0  0  0  0 
  1  4  2  0  0  0  0 
  7  8  2  0  0  0  0 
 15 16  2  0  0  0  0 
 16 17  1  0  0  0  0 
  8  9  1  0  0  0  0 
 17 18  2  0  0  0  0 
 18 14  1  0  0  0  0 
  3  5  1  0  0  0  0 
  9 10  2  0  0  0  0 
 10  5  1  0  0  0  0 
 19 20  2  0  0  0  0 
 19 21  1  0  0  0  0 
 18 19  1  0  0  0  0 
  1  3  1  0  0  0  0 
 15 22  1  0  0  0  0 
  5  6  2  0  0  0  0 
 15 23  1  0  0  0  0 
 11 12  1  0  0  0  0 
 23 24  1  0  0  0  0 
  1  2  1  0  0  0  0 
 23 25  1  0  0  0  0 
 12 13  1  0  0  0  0 
 25 26  1  0  0  0  0 
  6  7  1  0  0  0  0 
 24 27  1  0  0  0  0 
 13 14  1  0  0  0  0 
 17 28  1  0  0  0  0 
 11  2  1  0  0  0  0 
  7 29  1  0  0  0  0 
M  CHG  1  19   1
M  CHG  1  21  -1
M  END