
  SciTegic06141115222D

 32 35  0  0  0  0            999 V2000
    5.2250   -4.2238    0.0000 N   0  0
    5.1358   -3.3982    0.0000 C   0  0
    5.8933   -3.0581    0.0000 C   0  0
    6.4510   -3.6735    0.0000 N   0  0
    6.0383   -4.3934    0.0000 C   0  0
    6.2282   -5.1978    0.0000 C   0  0
    7.0251   -5.4340    0.0000 C   0  0
    7.2175   -6.2407    0.0000 C   0  0
    6.6139   -6.8119    0.0000 C   0  0
    5.8152   -6.5707    0.0000 C   0  0
    5.6265   -5.7646    0.0000 C   0  0
    6.1474   -2.2673    0.0000 C   0  0
    5.5899   -1.6523    0.0000 N   0  0
    6.9587   -2.0922    0.0000 O   0  0
    5.8439   -0.8620    0.0000 N   0  0
    5.2812   -0.2492    0.0000 C   0  0
    5.5307    0.5372    0.0000 C   0  0
    6.3389    0.7146    0.0000 C   0  0
    6.8998    0.1014    0.0000 C   0  0
    6.6459   -0.6946    0.0000 C   0  0
    4.6101   -4.7781    0.0000 C   0  0
    4.7868   -5.5902    0.0000 C   0  0
    4.1725   -6.1474    0.0000 C   0  0
    3.3813   -5.8935    0.0000 C   0  0
    3.2078   -5.0774    0.0000 C   0  0
    3.8235   -4.5238    0.0000 C   0  0
    6.8071   -7.6218    0.0000 Cl  0  0
    2.7655   -6.4500    0.0000 Cl  0  0
    7.6276   -4.8633    0.0000 Cl  0  0
    4.4157   -2.9854    0.0000 S   0  3
    3.6980   -3.4027    0.0000 C   0  0
    4.4130   -2.1554    0.0000 O   0  5
 15 16  1  0
  7  8  1  0
  3  4  1  0
  8  9  2  0
  4  5  2  0
  9 10  1  0
 15 20  1  0
 16 17  1  0
 17 18  1  0
 18 19  1  0
 19 20  1  0
  5  1  1  0
 10 11  2  0
 21 22  2  0
 11  6  1  0
 22 23  1  0
  5  6  1  0
 23 24  2  0
  1  2  1  0
 24 25  1  0
  3 12  1  0
 25 26  2  0
 26 21  1  0
  1 21  1  0
  9 27  1  0
 12 13  1  0
 24 28  1  0
  6  7  2  0
  7 29  1  0
 12 14  2  0
  2 30  1  0
  2  3  2  0
 30 31  1  0
 13 15  1  0
 30 32  1  0
M  CHG  2  30   1  32  -1
M  END