
  SciTegic02271515072D

 28 31  0  0  0  0            999 V2000
    4.3446  -14.0697    0.0000 C   0  0
    4.3434  -14.8892    0.0000 C   0  0
    5.0515  -15.2982    0.0000 C   0  0
    5.0497  -13.6608    0.0000 C   0  0
    5.7583  -14.0661    0.0000 C   0  0
    5.7585  -14.8893    0.0000 C   0  0
    6.5415  -15.1434    0.0000 S   0  0
    7.0252  -14.4773    0.0000 C   0  0
    6.5411  -13.8115    0.0000 C   0  0
    6.2464  -12.4271    0.0000 C   0  0
    5.4471  -12.5973    0.0000 O   0  0
    3.6408  -13.6570    0.0000 C   0  0
    3.6495  -12.8402    0.0000 C   0  0
    2.9466  -12.4276    0.0000 C   0  0
    2.2363  -12.8309    0.0000 C   0  0
    2.2335  -13.6509    0.0000 C   0  0
    2.9370  -14.0598    0.0000 C   0  0
    1.5308  -12.4185    0.0000 O   0  0
    1.5244  -14.0573    0.0000 O   0  0
    0.8180  -13.6464    0.0000 C   0  0
    0.8209  -12.8233    0.0000 C   0  0
    6.8629  -13.0143    0.0000 N   0  0
    6.4715  -11.5810    0.0000 C   0  0
    7.3184  -11.3547    0.0000 C   0  0
    7.5445  -10.5127    0.0000 C   0  0
    6.9272   -9.8913    0.0000 C   0  0
    6.0804  -10.1176    0.0000 C   0  0
    5.8508  -10.9654    0.0000 C   0  0
  1  2  2  0
  2  3  1  0
  3  6  2  0
  5  4  2  0
  4  1  1  0
  5  6  1  0
  6  7  1  0
  7  8  1  0
  8  9  2  0
  9  5  1  0
  9 22  1  0
 22 10  1  0
 23 10  1  0
 10 11  2  0
  1 12  1  0
 12 13  2  0
 13 14  1  0
 14 15  2  0
 15 16  1  0
 16 17  2  0
 17 12  1  0
 15 18  1  0
 16 19  1  0
 19 20  1  0
 18 21  1  0
 23 24  1  0
 23 28  1  0
 24 25  1  0
 25 26  1  0
 26 27  1  0
 27 28  1  0
M  END