
  SciTegic01161211212D

 21 21  0  0  0  0            999 V2000
   -2.5827    0.7149    0.0000 C   0  0
   -1.8683    0.3024    0.0000 C   0  0
   -1.1538    0.7149    0.0000 C   0  0
   -1.1538    1.5399    0.0000 C   0  0
   -1.8683    1.9524    0.0000 C   0  0
   -2.5827    1.5399    0.0000 C   0  0
   -0.4393    1.9524    0.0000 C   0  0
    0.2752    1.5399    0.0000 C   0  0
    0.9896    1.9524    0.0000 C   0  0
    0.9896    2.7774    0.0000 C   0  0
    1.7041    1.5399    0.0000 C   0  0
    2.4186    1.9524    0.0000 C   0  0
    3.1331    1.5399    0.0000 C   0  0
    3.8475    1.9524    0.0000 C   0  0
    3.8475    2.7774    0.0000 C   0  0
    4.5620    1.5399    0.0000 C   0  0
    5.2765    1.9524    0.0000 C   0  0
    5.9909    1.5399    0.0000 O   0  0
   -0.4393    0.3024    0.0000 C   0  0
   -2.2808    2.6669    0.0000 C   0  0
   -1.4558    2.6669    0.0000 C   0  0
  1  2  1  0
  2  3  1  0
  3  4  2  0
  4  5  1  0
  5  6  1  0
  6  1  1  0
  4  7  1  0
  7  8  2  0
  8  9  1  0
  9 10  1  0
  9 11  2  0
 11 12  1  0
 12 13  2  0
 13 14  1  0
 14 15  1  0
 14 16  2  0
 16 17  1  0
 17 18  1  0
  3 19  1  0
  5 20  1  0
  5 21  1  0
M  END