
  SciTegic06051313522D

 34 38  0  0  0  0            999 V2000
   24.1952  -14.3718    0.0000 C   0  0
   24.5286  -13.7676    0.0000 C   0  0
   25.1161  -13.3551    0.0000 C   0  0
   24.9036  -14.0135    0.0000 C   0  0
   24.8911  -12.4426    0.0000 C   0  0
   25.8452  -13.7801    0.0000 C   0  0
   25.5744  -14.3551    0.0000 C   0  0
   17.7735  -14.8217    0.0000 C   0  0
   17.7723  -15.6491    0.0000 C   0  0
   18.4871  -16.0620    0.0000 C   0  0
   19.2036  -15.6486    0.0000 C   0  0
   19.2007  -14.8181    0.0000 C   0  0
   18.4853  -14.4090    0.0000 C   0  0
   19.9136  -14.4029    0.0000 C   0  0
   20.6297  -14.8127    0.0000 C   0  0
   20.6294  -15.6354    0.0000 C   0  0
   21.3446  -16.0451    0.0000 C   0  0
   22.0585  -15.6298    0.0000 C   0  0
   22.0527  -14.8006    0.0000 C   0  0
   21.3370  -14.3946    0.0000 N   0  0
   19.9187  -16.0600    0.0000 O   0  0
   19.9200  -16.8850    0.0000 C   0  0
   20.6351  -17.2964    0.0000 C   0  0
   20.6318  -18.1187    0.0000 C   0  0
   21.3460  -18.5300    0.0000 C   0  0
   22.0609  -18.1163    0.0000 C   0  0
   22.0569  -17.2871    0.0000 C   0  0
   21.3420  -16.8795    0.0000 C   0  0
   19.9167  -18.5301    0.0000 F   0  0
   22.7765  -18.5267    0.0000 Cl  0  0
   17.0589  -14.4094    0.0000 Cl  0  0
   22.7663  -14.3822    0.0000 C   0  0
   23.4838  -14.7895    0.0000 N   0  0
   22.7603  -13.5573    0.0000 O   0  0
  1  2  1  0
  2  3  1  0
  1  4  1  0
  4  5  1  0
  5  3  1  0
  3  6  1  0
  6  7  1  0
  7  4  1  0
  8  9  2  0
  9 10  1  0
 10 11  2  0
 11 12  1  0
 12 13  2  0
 13  8  1  0
 12 14  1  0
 14 15  1  0
 15 16  2  0
 16 17  1  0
 17 18  2  0
 18 19  1  0
 19 20  2  0
 20 15  1  0
 11 21  1  0
 21 22  1  0
 22 23  1  0
 23 24  2  0
 24 25  1  0
 25 26  2  0
 26 27  1  0
 27 28  2  0
 28 23  1  0
 24 29  1  0
 26 30  1  0
  8 31  1  0
 32 33  1  0
 32 34  2  0
 19 32  1  0
 33  1  1  0
M  END