
          11280715122D 1   1.00000     0.00000     0

 31 34  0     0  0            999 V2000
    6.6667   -5.6917    0.0000 C   0  0  0  0  0  0           0  0  0
    6.1375   -6.9167    0.0000 N   0  0  0  0  0  0           0  0  0
    6.8417   -6.5000    0.0000 N   0  0  0  0  0  0           0  0  0
    5.5167   -6.3875    0.0000 N   0  0  0  0  0  0           0  0  0
    3.6542   -1.3625    0.0000 C   0  0  0  0  0  0           0  0  0
    5.8500   -5.6167    0.0000 N   0  0  0  0  0  0           0  0  0
    7.2167   -5.0750    0.0000 C   0  0  0  0  0  0           0  0  0
    3.6542   -0.5292    0.0000 C   0  0  0  0  0  0           0  0  0
    4.3667   -1.7750    0.0000 N   0  0  3  0  0  0           0  0  0
    7.2167   -4.2500    0.0000 C   0  0  0  0  0  0           0  0  0
    4.3792   -0.1125    0.0000 C   0  0  0  0  0  0           0  0  0
    5.1000    0.3083    0.0000 N   0  0  0  0  0  0           0  0  0
    2.9417   -1.7750    0.0000 N   0  0  0  0  0  0           0  0  0
    6.5042   -3.8375    0.0000 C   0  0  0  0  0  0           0  0  0
    4.3667   -2.6000    0.0000 C   0  0  0  0  0  0           0  0  0
    6.5042   -3.0042    0.0000 C   0  0  0  0  0  0           0  0  0
    5.7917   -4.2500    0.0000 C   0  0  0  0  0  0           0  0  0
    5.0792   -3.0125    0.0000 C   0  0  0  0  0  0           0  0  0
    5.7875   -2.5917    0.0000 C   0  0  0  0  0  0           0  0  0
    5.0792   -3.8375    0.0000 C   0  0  0  0  0  0           0  0  0
    5.0792   -1.3625    0.0000 C   0  0  0  0  0  0           0  0  0
    2.9417   -0.1167    0.0000 C   0  0  0  0  0  0           0  0  0
    7.9292   -5.4875    0.0000 C   0  0  0  0  0  0           0  0  0
    7.9292   -3.8375    0.0000 C   0  0  0  0  0  0           0  0  0
    2.2292   -1.3625    0.0000 C   0  0  0  0  0  0           0  0  0
    5.7875   -1.7750    0.0000 C   0  0  0  0  0  0           0  0  0
    2.2292   -0.5375    0.0000 C   0  0  0  0  0  0           0  0  0
    6.4917   -1.3667    0.0000 C   0  0  0  0  0  0           0  0  0
    8.6417   -4.2417    0.0000 C   0  0  0  0  0  0           0  0  0
    8.6417   -5.0750    0.0000 C   0  0  0  0  0  0           0  0  0
    7.2042   -1.7750    0.0000 C   0  0  0  0  0  0           0  0  0
  2  3  2  0     0  0
  3  1  1  0     0  0
  4  6  1  0     0  0
  5  9  1  0     0  0
  6  1  2  0     0  0
  7  1  1  0     0  0
  8  5  1  0     0  0
  9 15  1  0     0  0
 10  7  2  0     0  0
 11  8  1  0     0  0
 12 11  3  0     0  0
 13  5  2  0     0  0
 14 10  1  0     0  0
 15 18  1  0     0  0
 16 14  2  0     0  0
 17 14  1  0     0  0
 18 20  1  0     0  0
 19 16  1  0     0  0
 20 17  2  0     0  0
 21  9  1  0     0  0
 22  8  2  0     0  0
 23  7  1  0     0  0
 24 10  1  0     0  0
 25 13  1  0     0  0
 26 21  1  0     0  0
 27 25  2  0     0  0
 28 26  1  0     0  0
 29 30  1  0     0  0
 30 23  2  0     0  0
 31 28  1  0     0  0
  2  4  1  0     0  0
 24 29  2  0     0  0
 18 19  2  0     0  0
 27 22  1  0     0  0
M  END