
  SciTegic01091216402D

 24 25  0  0  0  0            999 V2000
    8.1146   -6.0583    0.0000 C   0  0
    7.7063   -6.7750    0.0000 C   0  0
    8.1222   -7.4892    0.0000 C   0  0
    6.4009   -6.4956    0.0000 N   0  0
    6.4860   -7.3177    0.0000 N   0  0
    7.2928   -7.4903    0.0000 C   0  0
    7.1538   -6.1633    0.0000 C   0  0
    5.6877   -6.0857    0.0000 C   0  0
    4.9733   -6.4984    0.0000 N   0  0
    5.6867   -5.2595    0.0000 N   0  0
    6.4011   -4.8468    0.0000 C   0  0
    7.1164   -5.2603    0.0000 C   0  0
    4.2575   -6.0808    0.0000 S   0  0
    4.6679   -5.3717    0.0000 O   0  0
    3.5458   -6.5005    0.0000 C   0  0
    3.5542   -7.3254    0.0000 C   0  0
    2.8467   -7.7451    0.0000 C   0  0
    2.1267   -7.3399    0.0000 C   0  0
    2.1183   -6.5149    0.0000 C   0  0
    2.8300   -6.0952    0.0000 C   0  0
    2.8550   -8.5701    0.0000 Cl  0  0
    3.6667   -5.4917    0.0000 O   0  0
    8.9396   -6.0536    0.0000 C   0  0
    8.9472   -7.4862    0.0000 C   0  0
  6  2  1  0
  2  7  1  0
  4  7  1  0
  8  9  2  0
  8 10  1  0
  4  8  1  0
 11 12  1  0
 10 11  1  0
 13 14  2  0
 15 16  1  0
 16 17  2  0
 17 18  1  0
 18 19  2  0
 19 20  1  0
 15 20  2  0
 13 15  1  0
 17 21  1  0
  9 13  1  0
 13 22  2  0
  4  5  1  0
  5  6  2  0
  1  2  1  0
  1 23  1  0
  2  3  1  0
  3 24  1  0
M  END