
  SciTegic06051315212D

 30 33  0  0  0  0            999 V2000
   10.2836  -13.6735    0.0000 C   0  0
   10.2825  -14.4930    0.0000 C   0  0
   10.9905  -14.9020    0.0000 C   0  0
   11.6981  -14.4889    0.0000 C   0  0
   12.4067  -14.8959    0.0000 C   0  0
   13.1149  -14.4851    0.0000 C   0  0
   13.1102  -13.6630    0.0000 C   0  0
   12.3268  -13.2720    0.0000 C   0  0
   10.9887  -13.2646    0.0000 C   0  0
   11.6994  -13.6735    0.0000 C   0  0
   11.1589  -12.4633    0.0000 C   0  0
   12.1039  -12.4431    0.0000 C   0  0
   10.6464  -11.8268    0.0000 O   0  0
   12.4368  -11.7873    0.0000 C   0  0
   13.2540  -11.7848    0.0000 C   0  0
   12.0737  -11.0553    0.0000 C   0  0
   14.0714  -11.7798    0.0000 N   0  0
   11.7069  -10.3219    0.0000 N   0  0
   12.4084  -15.7131    0.0000 O   0  0
   13.1169  -16.1203    0.0000 C   0  0
   13.1153  -16.9351    0.0000 C   0  0
   13.8230  -17.3421    0.0000 C   0  0
   14.5308  -16.9320    0.0000 C   0  0
   14.5265  -16.1106    0.0000 C   0  0
   13.8182  -15.7073    0.0000 C   0  0
   15.2399  -17.3382    0.0000 C   0  0
   15.2427  -18.1554    0.0000 C   0  0
   15.9462  -16.9272    0.0000 C   0  0
   15.9435  -17.7430    0.0000 C   0  0
   15.9435  -16.1100    0.0000 C   0  0
  1  2  2  0
  2  3  1  0
  3  4  2  0
  9  1  1  0
 10  4  1  0
  4  5  1  0
  5  6  2  0
  6  7  1  0
  7  8  2  0
  8 10  1  0
  9 10  2  0
 11  9  1  0
  8 12  1  0
 11 12  1  0
 11 13  2  0
 12 14  2  0
 14 15  1  0
 14 16  1  0
 15 17  3  0
 16 18  3  0
  5 19  1  0
 19 20  1  0
 20 21  2  0
 21 22  1  0
 22 23  2  0
 23 24  1  0
 24 25  2  0
 25 20  1  0
 23 26  1  0
 26 27  1  0
 26 28  1  0
 26 29  1  0
 28 30  1  0
M  END