
  SciTegic11241610372D

 22 25  0  0  0  0            999 V2000
   -2.3155    0.7475    0.0000 N   0  0
   -2.3155   -0.7475    0.0000 C   0  0
   -1.0028   -1.5132    0.0000 N   0  0
   -1.0028    1.5132    0.0000 C   0  0
    0.2917    0.7475    0.0000 C   0  0
    0.2917   -0.7475    0.0000 C   0  0
    1.7138   -1.2033    0.0000 N   0  0
    2.5889    0.0182    0.0000 N   0  0
    1.7138    1.2033    0.0000 C   0  0
    2.1749    2.6315    0.0000 C   0  0
    1.2517    3.8078    0.0000 C   0  0
    1.8114    5.1995    0.0000 C   0  0
    3.2965    5.4106    0.0000 C   0  0
    4.2218    4.2301    0.0000 C   0  0
    3.6621    2.8384    0.0000 C   0  0
   -0.9971    3.0138    0.0000 S   0  0
   -2.2935    3.7700    0.0000 C   0  0
   -2.4279    5.2511    0.0000 N   0  0
   -3.8944    5.5664    0.0000 N   0  0
   -4.6474    4.2692    0.0000 N   0  0
   -3.6464    3.1521    0.0000 N   0  0
   -1.5295    6.0466    0.0000 C   0  0
  1  2  2  0
  2  3  1  0
  3  6  2  0
  5  4  2  0
  4  1  1  0
  5  6  1  0
  6  7  1  0
  7  8  1  0
  8  9  2  0
  9  5  1  0
 10 11  2  0
 11 12  1  0
 12 13  2  0
 13 14  1  0
 14 15  2  0
 15 10  1  0
  9 10  1  0
  4 16  1  0
 16 17  1  0
 17 18  1  0
 18 19  1  0
 19 20  2  0
 20 21  1  0
 21 17  2  0
 18 22  1  0
M  END