
          11280715492D 1   1.00000     0.00000     0

 28 30  0     0  0            999 V2000
    9.8027   -7.5333    0.0000 N   0  0  0  0  0  0           0  0  0
    9.8016   -8.3607    0.0000 C   0  0  0  0  0  0           0  0  0
   10.5164   -8.7735    0.0000 C   0  0  0  0  0  0           0  0  0
   11.2328   -8.3602    0.0000 C   0  0  0  0  0  0           0  0  0
   11.2300   -7.5297    0.0000 C   0  0  0  0  0  0           0  0  0
   10.5146   -7.1205    0.0000 C   0  0  0  0  0  0           0  0  0
   11.9480   -8.7716    0.0000 C   0  0  0  0  0  0           0  0  0
   12.8394   -9.7674    0.0000 N   0  0  0  0  0  0           0  0  0
   13.2510   -9.0559    0.0000 C   0  0  0  0  0  0           0  0  0
   12.6904   -8.4334    0.0000 N   0  0  0  0  0  0           0  0  0
   12.0323   -9.5890    0.0000 C   0  0  0  0  0  0           0  0  0
   11.4167  -10.1371    0.0000 C   0  0  0  0  0  0           0  0  0
   10.6952   -9.7346    0.0000 C   0  0  0  0  0  0           0  0  0
    9.9881  -10.1581    0.0000 C   0  0  0  0  0  0           0  0  0
   10.0011  -10.9838    0.0000 C   0  0  0  0  0  0           0  0  0
   10.7273  -11.3843    0.0000 C   0  0  0  0  0  0           0  0  0
   11.4315  -10.9586    0.0000 C   0  0  0  0  0  0           0  0  0
    9.2941  -11.4089    0.0000 Cl  0  0  0  0  0  0           0  0  0
   10.7437  -12.2092    0.0000 O   0  0  0  0  0  0           0  0  0
   14.0750   -9.0542    0.0000 C   0  0  3  0  0  0           0  0  0
   14.9000   -9.0542    0.0000 C   0  0  0  0  0  0           0  0  0
   14.0741   -8.2292    0.0000 C   0  0  0  0  0  0           0  0  0
   14.0748   -9.8792    0.0000 C   0  0  0  0  0  0           0  0  0
   15.3125   -9.7686    0.0000 N   0  0  0  0  0  0           0  0  0
   16.1375   -9.7686    0.0000 S   0  0  3  0  0  0           0  0  0
   16.9625   -9.7667    0.0000 C   0  0  0  0  0  0           0  0  0
   16.1385  -10.5936    0.0000 O   0  0  0  0  0  0           0  0  0
   16.1365   -8.9436    0.0000 O   0  0  0  0  0  0           0  0  0
 13 14  2  0     0  0
  4  7  1  0     0  0
 14 15  1  0     0  0
  3  4  1  0     0  0
 15 16  2  0     0  0
 16 17  1  0     0  0
 17 12  2  0     0  0
 11 12  1  0     0  0
  4  5  2  0     0  0
 15 18  1  0     0  0
  2  3  2  0     0  0
 16 19  1  0     0  0
  8  9  2  0     0  0
  9 20  1  0     0  0
  9 10  1  0     0  0
 20 21  1  0     0  0
 10  7  1  0     0  0
 20 22  1  0     0  0
  7 11  2  0     0  0
 20 23  1  0     0  0
 11  8  1  0     0  0
 21 24  1  0     0  0
  5  6  1  0     0  0
 24 25  1  0     0  0
  6  1  2  0     0  0
 25 26  1  0     0  0
 12 13  1  0     0  0
 25 27  2  0     0  0
  1  2  1  0     0  0
 25 28  2  0     0  0
M  END