
  SciTegic06181315362D

 38 40  0  0  0  0            999 V2000
   24.5025  -10.0498    0.0000 C   0  0
   24.5013  -10.8772    0.0000 C   0  0
   25.2161  -11.2900    0.0000 C   0  0
   25.9326  -10.8767    0.0000 C   0  0
   25.9297  -10.0462    0.0000 C   0  0
   25.2143   -9.6371    0.0000 C   0  0
   23.7879   -9.6375    0.0000 O   0  0
   23.0735  -10.0502    0.0000 C   0  0
   23.0738  -10.8752    0.0000 C   0  0
   22.3594  -11.2878    0.0000 O   0  0
   26.6476  -11.2881    0.0000 O   0  0
   27.3615  -10.8745    0.0000 C   0  0
   28.0766  -11.2859    0.0000 C   0  0
   28.7904  -10.8723    0.0000 C   0  0
   28.0779  -12.1109    0.0000 O   0  0
   29.5056  -11.2836    0.0000 N   0  0
   30.2193  -10.8700    0.0000 C   0  0
   30.9345  -11.2814    0.0000 C   0  0
   31.6482  -10.8677    0.0000 N   0  0
   32.3634  -11.2791    0.0000 C   0  0
   33.0772  -10.8655    0.0000 N   0  0
   32.3647  -12.1041    0.0000 O   0  0
   33.7923  -11.2769    0.0000 C   0  0
   33.7899  -12.1009    0.0000 C   0  0
   34.5041  -12.5123    0.0000 C   0  0
   35.2189  -12.0986    0.0000 C   0  0
   35.2149  -11.2693    0.0000 C   0  0
   34.5001  -10.8618    0.0000 C   0  0
   35.9345  -12.5090    0.0000 O   0  0
   21.6448  -10.8755    0.0000 C   0  0
   20.9305  -11.2882    0.0000 C   0  0
   20.2159  -10.8758    0.0000 C   0  0
   20.2180  -10.0508    0.0000 C   0  0
   19.5042   -9.6385    0.0000 C   0  0
   18.7888  -10.0512    0.0000 C   0  0
   18.7917  -10.8806    0.0000 C   0  0
   19.5060  -11.2890    0.0000 C   0  0
   18.0738   -9.6398    0.0000 F   0  0
  1  2  2  0
  2  3  1  0
  3  4  2  0
  4  5  1  0
  5  6  2  0
  6  1  1  0
  1  7  1  0
  7  8  1  0
  8  9  1  0
  9 10  1  0
  4 11  1  0
 11 12  1  0
 12 13  1  0
 13 14  1  0
 13 15  1  0
 14 16  1  0
 16 17  1  0
 17 18  1  0
 18 19  1  0
 19 20  1  0
 20 21  1  0
 20 22  2  0
 21 23  1  0
 23 24  2  0
 24 25  1  0
 25 26  2  0
 26 27  1  0
 27 28  2  0
 28 23  1  0
 26 29  1  0
 10 30  1  0
 30 31  1  0
 31 32  1  0
 32 33  2  0
 33 34  1  0
 34 35  2  0
 35 36  1  0
 36 37  2  0
 37 32  1  0
 35 38  1  0
M  END