
  SciTegic04091414352D

 54 58  0  0  0  0            999 V2000
   17.2917  -15.8485    0.0000 C   0  0
   17.2905  -16.6681    0.0000 C   0  0
   17.9986  -17.0770    0.0000 C   0  0
   17.9968  -15.4397    0.0000 C   0  0
   18.7054  -15.8449    0.0000 C   0  0
   18.7057  -16.6681    0.0000 C   0  0
   19.4886  -16.9223    0.0000 S   0  0
   19.9723  -16.2561    0.0000 C   0  0
   19.4882  -15.5904    0.0000 N   0  0
   20.7879  -16.2561    0.0000 C   0  0
   21.2684  -16.9170    0.0000 C   0  0
   22.0456  -16.6642    0.0000 N   0  0
   22.0453  -15.8470    0.0000 C   0  0
   21.2680  -15.5948    0.0000 S   0  0
   22.7062  -15.3663    0.0000 C   0  0
   22.6204  -14.5537    0.0000 C   0  0
   21.0162  -17.6943    0.0000 O   0  0
   19.7405  -14.8131    0.0000 C   0  0
   22.7069  -17.1443    0.0000 C   0  0
   22.6217  -17.9571    0.0000 C   0  0
   23.2824  -14.0745    0.0000 N   0  3
   23.1971  -13.2626    0.0000 C   0  0
   22.4498  -12.9297    0.0000 C   0  0
   21.7870  -13.4150    0.0000 C   0  0
   21.8757  -14.2252    0.0000 C   0  0
   24.0287  -14.4076    0.0000 C   0  0
   24.6902  -13.9279    0.0000 C   0  0
   25.4365  -14.2609    0.0000 C   0  0
   26.0980  -13.7812    0.0000 C   0  0
   26.8443  -14.1143    0.0000 C   0  0
   27.5058  -13.6345    0.0000 C   0  0
   28.2521  -13.9676    0.0000 N   0  0
   28.9136  -13.4879    0.0000 C   0  0
   29.6599  -13.8209    0.0000 C   0  0
   28.8290  -12.6751    0.0000 O   0  0
   30.3214  -13.3412    0.0000 C   0  0
   31.0677  -13.6743    0.0000 C   0  0
   31.7292  -13.1945    0.0000 C   0  0
   32.4755  -13.5276    0.0000 C   0  0  2  0  0  0
   32.6425  -14.3248    0.0000 S   0  0
   33.4551  -14.4109    0.0000 C   0  0
   33.1814  -13.1174    0.0000 C   0  0  2  0  0  0
   33.7855  -13.6631    0.0000 C   0  0  1  0  0  0
   34.4913  -13.2572    0.0000 N   0  0
   34.3233  -12.4606    0.0000 C   0  0
   33.5138  -12.3742    0.0000 N   0  0
   34.8711  -11.8541    0.0000 O   0  0
   32.5969  -12.5344    0.0000 H   0  0
   34.3592  -14.2389    0.0000 H   0  0
   16.5839  -15.4401    0.0000 C   0  0
   16.5837  -14.6229    0.0000 F   0  0
   15.8763  -15.8489    0.0000 F   0  0
   15.8733  -15.0314    0.0000 C   0  0
   26.0676  -15.9352    0.0000 Cl  0  5
  1  2  2  0
  2  3  1  0
  3  6  2  0
  5  4  2  0
  4  1  1  0
  5  6  1  0
  6  7  1  0
  7  8  1  0
  8  9  1  0
  9  5  1  0
 10 11  1  0
 11 12  1  0
 12 13  1  0
 13 14  1  0
 14 10  1  0
  8 10  2  0
 13 15  2  0
 15 16  1  0
 11 17  2  0
  9 18  1  0
 12 19  1  0
 19 20  1  0
 16 21  2  0
 21 22  1  0
 22 23  2  0
 23 24  1  0
 24 25  2  0
 25 16  1  0
 21 26  1  0
 26 27  1  0
 27 28  1  0
 28 29  1  0
 29 30  1  0
 30 31  1  0
 31 32  1  0
 32 33  1  0
 33 34  1  0
 33 35  2  0
 34 36  1  0
 36 37  1  0
 37 38  1  0
 39 38  1  1
 39 40  1  0
 40 41  1  0
 41 43  1  0
 42 39  1  0
 42 43  1  0
 43 44  1  0
 44 45  1  0
 45 46  1  0
 46 42  1  0
 45 47  2  0
 42 48  1  6
 43 49  1  6
  1 50  1  0
 50 51  1  0
 50 52  1  0
 50 53  1  0
M  CHG  2  21   1  54  -1
M  END