
  SciTegic12231509382D

 23 26  0  0  0  0            999 V2000
    3.4012   -7.7024    0.0000 N   0  0
    3.4000   -8.5306    0.0000 C   0  0
    4.1155   -8.9439    0.0000 C   0  0
    4.8327   -8.5301    0.0000 C   0  0
    4.8298   -7.6988    0.0000 C   0  0
    4.1137   -7.2893    0.0000 C   0  0
    4.1084   -6.4663    0.0000 C   0  0
    4.8240   -6.0519    0.0000 C   0  0
    4.8219   -5.2269    0.0000 C   0  0
    4.1049   -4.8153    0.0000 C   0  0
    3.3887   -5.2348    0.0000 N   0  0
    3.3943   -6.0584    0.0000 C   0  0
    7.0151   -3.8653    0.0000 C   0  0
    6.8243   -4.5303    0.0000 C   0  0
    6.3446   -5.0641    0.0000 C   0  0  1  0  0  0
    6.4023   -4.3732    0.0000 C   0  0  1  0  0  0
    6.6551   -5.7599    0.0000 N   0  0
    5.5383   -4.8117    0.0000 C   0  0  2  0  0  0
    5.6737   -4.1923    0.0000 C   0  0
    6.8990   -6.5488    0.0000 C   0  0
    6.2435   -3.5628    0.0000 H   0  0
    5.7955   -5.6809    0.0000 H   0  0
    2.6845   -8.9429    0.0000 F   0  0
 11 12  2  0
 12  7  1  0
  6  7  1  0
  6  1  1  0
  1  2  2  0
  3  4  2  0
  7  8  2  0
  8  9  1  0
  4  5  1  0
 13 14  1  0
 14 15  1  0
 13 16  1  0
 16 17  1  0
 17 15  1  0
 15 18  1  0
 18 19  1  0
 19 16  1  0
 18  9  1  1
  9 10  2  0
 17 20  1  0
  2  3  1  0
 16 21  1  6
 10 11  1  0
 15 22  1  6
  5  6  2  0
  2 23  1  0
M  END