
  SciTegic12231509382D

 36 39  0  0  0  0            999 V2000
    1.1667   -2.7000    0.0000 C   0  0  2  0  0  0
    1.8417   -2.4792    0.0000 C   0  0  1  0  0  0
   -0.6458   -3.8125    0.0000 C   0  0  2  0  0  0
    0.5750   -3.7792    0.0000 C   0  0  1  0  0  0
    1.1875   -3.4000    0.0000 C   0  0  2  0  0  0
   -0.0333   -3.4292    0.0000 C   0  0  2  0  0  0
   -0.6250   -4.5042    0.0000 C   0  0
    0.5417   -2.3667    0.0000 C   0  0
   -0.0458   -2.7167    0.0000 C   0  0  2  0  0  0
    1.8375   -1.7750    0.0000 C   0  0
   -1.2458   -4.8792    0.0000 C   0  0
    2.2750   -3.0250    0.0000 C   0  0
    1.8750   -3.6167    0.0000 C   0  0
    0.5750   -4.4917    0.0000 C   0  0
   -1.2625   -3.4542    0.0000 C   0  0
    5.5167   -1.7500    0.0000 C   0  0
   -0.0125   -4.8667    0.0000 C   0  0
    3.6750   -1.4042    0.0000 C   0  0
   -1.8708   -4.5417    0.0000 C   0  0
    2.4417   -1.4167    0.0000 C   0  0
    6.1292   -1.3917    0.0000 O   0  0
    1.2167   -1.4167    0.0000 O   0  0
    3.0625   -1.7667    0.0000 O   0  0
    5.5167   -2.4542    0.0000 O   0  0
    3.6667   -0.7000    0.0000 O   0  0
   -2.4958   -4.9167    0.0000 O   0  0
    2.4542   -2.1167    0.0000 O   0  0
    1.1792   -1.9917    0.0000 C   0  0
   -1.8875   -3.8292    0.0000 C   0  0
   -0.6833   -2.4000    0.0000 O   0  0
    4.9000   -1.4000    0.0000 C   0  0
    4.2875   -1.7542    0.0000 C   0  0
   -0.6583   -3.1042    0.0000 C   0  0
    0.5542   -3.0417    0.0000 H   0  0
   -0.0208   -4.1042    0.0000 H   0  0
    1.2042   -4.0375    0.0000 H   0  0
  2  1  1  0
  3  6  1  0
  4  5  1  0
  5  1  1  0
  6  9  1  0
  7  3  1  0
  8  1  1  0
  9  8  1  0
 10  2  1  0
 11  7  2  0
 12  2  1  0
 13  5  1  0
 14  4  1  0
 15  3  1  0
 16 31  1  0
 17 14  1  0
 18 23  1  0
 19 29  1  0
 20 10  1  0
 21 16  1  0
 22 10  2  0
 23 20  1  0
 24 16  2  0
 25 18  2  0
 26 19  2  0
  2 27  1  6
  1 28  1  1
 29 15  1  0
  9 30  1  1
 31 32  1  0
 32 18  1  0
  3 33  1  1
  4 34  1  1
  6 35  1  6
  5 36  1  6
 12 13  1  0
  6  4  1  0
  7 17  1  0
 19 11  1  0
M  END