
          11280714482D 1   1.00000     0.00000     0

 56 61  0     0  0            999 V2000
    9.7250    0.1375    0.0000 C   0  0  0  0  0  0           0  0  0
   10.4375    1.3750    0.0000 C   0  0  0  0  0  0           0  0  0
   10.4417    0.5500    0.0000 C   0  0  0  0  0  0           0  0  0
    9.7250   -0.6917    0.0000 C   0  0  0  0  0  0           0  0  0
    9.7250    1.7875    0.0000 O   0  0  0  0  0  0           0  0  0
    9.0042    1.3750    0.0000 C   0  0  0  0  0  0           0  0  0
    9.0042    0.5500    0.0000 C   0  0  0  0  0  0           0  0  0
   10.4375   -1.1042    0.0000 C   0  0  0  0  0  0           0  0  0
   11.1500    1.7875    0.0000 C   0  0  0  0  0  0           0  0  0
   11.1500    0.1375    0.0000 C   0  0  0  0  0  0           0  0  0
    9.0042   -1.1042    0.0000 C   0  0  0  0  0  0           0  0  0
   11.2625   -1.1042    0.0000 C   0  0  0  0  0  0           0  0  0
   -0.9750   -2.0167    0.0000 N   0  0  3  0  0  0           0  0  0
    9.0042   -1.9292    0.0000 C   0  0  0  0  0  0           0  0  0
    8.2875   -2.3542    0.0000 C   0  0  0  0  0  0           0  0  0
   -1.6958   -2.4292    0.0000 C   0  0  0  0  0  0           0  0  0
    8.2917    1.7875    0.0000 C   0  0  0  0  0  0           0  0  0
   11.8667    0.5500    0.0000 C   0  0  0  0  0  0           0  0  0
   11.8667    1.3750    0.0000 C   0  0  0  0  0  0           0  0  0
   10.4375   -1.9292    0.0000 C   0  0  0  0  0  0           0  0  0
    8.2917    0.1375    0.0000 C   0  0  0  0  0  0           0  0  0
   -1.6958   -3.2542    0.0000 N   0  0  0  0  0  0           0  0  0
   -0.9750   -1.1875    0.0000 C   0  0  0  0  0  0           0  0  0
    9.7250   -2.3417    0.0000 C   0  0  0  0  0  0           0  0  0
   11.6667   -0.3875    0.0000 O   0  0  0  0  0  0           0  0  0
    8.2917   -3.1792    0.0000 O   0  0  0  0  0  0           0  0  0
   -0.2583   -2.4292    0.0000 C   0  0  0  0  0  0           0  0  0
   12.5875    1.7875    0.0000 O   0  0  0  0  0  0           0  0  0
    7.5667   -1.9417    0.0000 N   0  0  0  0  0  0           0  0  0
    7.5792    1.3750    0.0000 C   0  0  0  0  0  0           0  0  0
   -1.6875   -0.7750    0.0000 C   0  0  0  0  0  0           0  0  0
    1.1667   -2.4292    0.0000 N   0  0  3  0  0  0           0  0  0
    7.5792    0.5500    0.0000 C   0  0  0  0  0  0           0  0  0
   11.6750   -1.8167    0.0000 O   0  0  0  0  0  0           0  0  0
    0.4542   -2.0167    0.0000 C   0  0  0  0  0  0           0  0  0
   -3.1083    0.0708    0.0000 C   0  0  0  0  0  0           0  0  0
   -1.6750    0.0500    0.0000 C   0  0  0  0  0  0           0  0  0
   -2.4208   -1.1750    0.0000 C   0  0  0  0  0  0           0  0  0
   -2.3833    0.4750    0.0000 C   0  0  0  0  0  0           0  0  0
   -3.1208   -0.7542    0.0000 C   0  0  0  0  0  0           0  0  0
    6.8542    1.7875    0.0000 O   0  0  0  0  0  0           0  0  0
   -3.8250    0.4958    0.0000 O   0  0  0  0  0  0           0  0  0
   -2.4083   -2.0167    0.0000 C   0  0  0  0  0  0           0  0  0
   -2.4083   -3.6667    0.0000 C   0  0  0  0  0  0           0  0  0
    6.8542   -2.3542    0.0000 C   0  0  0  0  0  0           0  0  0
    1.8875   -2.0167    0.0000 C   0  0  0  0  0  0           0  0  0
    1.1625   -3.2542    0.0000 C   0  0  0  0  0  0           0  0  0
   -4.5500    0.0958    0.0000 C   0  0  0  0  0  0           0  0  0
    2.6000   -2.4375    0.0000 C   0  0  0  0  0  0           0  0  0
    6.1417   -1.9417    0.0000 C   0  0  0  0  0  0           0  0  0
    4.7125   -1.9292    0.0000 C   0  0  0  0  0  0           0  0  0
    5.4250   -2.3500    0.0000 C   0  0  0  0  0  0           0  0  0
    3.3167   -2.0292    0.0000 C   0  0  0  0  0  0           0  0  0
    4.0250   -2.4417    0.0000 C   0  0  0  0  0  0           0  0  0
   -3.1250   -2.4292    0.0000 C   0  0  0  0  0  0           0  0  0
   -3.1250   -3.2542    0.0000 C   0  0  0  0  0  0           0  0  0
  2  3  1  0     0  0
  3  1  2  0     0  0
  4  1  1  0     0  0
  5  6  1  0     0  0
  6  7  2  0     0  0
  7  1  1  0     0  0
  8  4  2  0     0  0
  9  2  2  0     0  0
 10  3  1  0     0  0
 11  4  1  0     0  0
 12  8  1  0     0  0
 13 27  1  0     0  0
 14 11  2  0     0  0
 15 14  1  0     0  0
 16 13  1  0     0  0
 17  6  1  0     0  0
 18 10  2  0     0  0
 19 18  1  0     0  0
 20  8  1  0     0  0
 21  7  1  0     0  0
 22 16  2  0     0  0
 23 13  1  0     0  0
 24 14  1  0     0  0
 25 12  2  0     0  0
 26 15  2  0     0  0
 27 35  1  0     0  0
 28 19  2  0     0  0
 29 15  1  0     0  0
 30 33  1  0     0  0
 31 23  1  0     0  0
 32 46  1  0     0  0
 33 21  2  0     0  0
 34 12  1  0     0  0
 35 32  1  0     0  0
 36 40  2  0     0  0
 37 31  1  0     0  0
 38 31  2  0     0  0
 39 37  2  0     0  0
 40 38  1  0     0  0
 41 30  1  0     0  0
 42 36  1  0     0  0
 43 16  1  0     0  0
 44 22  1  0     0  0
 45 29  1  0     0  0
 46 49  1  0     0  0
 47 32  1  0     0  0
 48 42  1  0     0  0
 49 53  1  0     0  0
 50 45  1  0     0  0
 51 52  1  0     0  0
 52 50  1  0     0  0
 53 54  1  0     0  0
 54 51  1  0     0  0
 55 43  2  0     0  0
 56 55  1  0     0  0
  2  5  1  0     0  0
 17 30  2  0     0  0
 24 20  2  0     0  0
 19  9  1  0     0  0
 36 39  1  0     0  0
 44 56  2  0     0  0
M  END