
          11280715432D 1   1.00000     0.00000     0

 14 16  0     0  0            999 V2000
    0.3125   -0.4042    0.0000 C   0  0  0  0  0  0           0  0  0
    0.5667    0.9125    0.0000 N   0  0  0  0  0  0           0  0  0
    1.1042   -0.1875    0.0000 C   0  0  3  0  0  0           0  0  0
   -0.4083    0.0000    0.0000 C   0  0  0  0  0  0           0  0  0
    0.3125   -1.2375    0.0000 C   0  0  0  0  0  0           0  0  0
   -0.4083   -1.6500    0.0000 N   0  0  0  0  0  0           0  0  0
   -1.1208   -0.4125    0.0000 C   0  0  0  0  0  0           0  0  0
   -0.6250    0.7958    0.0000 C   0  0  0  0  0  0           0  0  0
    1.5125    0.5375    0.0000 C   0  0  0  0  0  0           0  0  0
    0.5750    1.7375    0.0000 C   0  0  3  0  0  0           0  0  0
   -1.1208   -1.2375    0.0000 C   0  0  0  0  0  0           0  0  0
   -0.2208    1.5125    0.0000 C   0  0  0  0  0  0           0  0  0
    1.2917    1.3250    0.0000 C   0  0  0  0  0  0           0  0  0
   -1.8458   -1.6500    0.0000 C   0  0  0  0  0  0           0  0  0
  2  3  1  0     0  0
  3  1  1  0     0  0
  4  1  2  0     0  0
  5  1  1  0     0  0
  6  5  2  0     0  0
  7  4  1  0     0  0
  8  4  1  0     0  0
  9  3  1  0     0  0
 10  2  1  0     0  0
 11  6  1  0     0  0
 12  8  1  0     0  0
 13  9  1  0     0  0
 14 11  1  0     0  0
 11  7  2  0     0  0
 12 10  1  0     0  0
 13 10  1  0     0  0
M  END