
  SciTegic01161211222D

 39 44  0  0  0  0            999 V2000
    9.4819    1.1500    0.0000 C   0  0
    9.4807    0.3227    0.0000 C   0  0
   10.1956   -0.0902    0.0000 C   0  0
   10.1938    1.5628    0.0000 C   0  0
   11.5829   -0.1922    0.0000 C   0  0
   12.4160    0.0326    0.0000 C   0  0
   12.7310    0.7865    0.0000 N   0  0
   10.9139    0.3199    0.0000 C   0  0
   10.9091    1.1537    0.0000 C   0  0
   11.5863    1.6999    0.0000 C   0  0
   12.3678    1.5240    0.0000 C   0  0
    8.7705   -0.0884    0.0000 C   0  0
    8.0171    0.2477    0.0000 C   0  0
    7.4646   -0.3649    0.0000 C   0  0
    7.8766   -1.0798    0.0000 N   0  0
    8.6836   -0.9088    0.0000 N   0  0
    9.2963   -1.4612    0.0000 C   0  0
    6.6442   -0.2780    0.0000 C   0  0
   13.5556    0.8120    0.0000 C   0  0
   13.9900    0.1106    0.0000 C   0  0
   14.8146    0.1361    0.0000 C   0  0
   15.2490   -0.5653    0.0000 S   0  0
   16.0736   -0.5398    0.0000 C   0  0
   16.5754   -1.1908    0.0000 N   0  0
   17.3518   -0.9117    0.0000 N   0  0
   17.3263   -0.0870    0.0000 C   0  0
   16.5342    0.1434    0.0000 N   0  0
   16.2534    0.9192    0.0000 C   0  0
   17.9758    0.4187    0.0000 C   0  0
   18.7400    0.1050    0.0000 C   0  0
   19.3917    0.6096    0.0000 C   0  0
   19.2804    1.4279    0.0000 C   0  0
   17.8633    1.2326    0.0000 C   0  0
   18.5160    1.7401    0.0000 C   0  0
   18.4021    2.5571    0.0000 N   0  0
   17.6361    2.8677    0.0000 C   0  0
   16.9834    2.3551    0.0000 C   0  0
   17.1006    1.5399    0.0000 C   0  0
   17.5208    3.6846    0.0000 C   0  0
  6  7  1  0
  7 19  1  0
  5  8  1  0
 19 20  1  0
  9 10  1  0
 20 21  1  0
 10 11  1  0
 21 22  1  0
 11  7  1  0
 22 23  1  0
 23 24  2  0
  8  9  1  0
 12 13  2  0
  2  3  1  0
  3  8  2  0
 24 25  1  0
 25 26  2  0
 26 27  1  0
 27 23  1  0
  1  2  2  0
 27 28  1  0
  9  4  2  0
  4  1  1  0
 29 30  2  0
 13 14  1  0
 30 31  1  0
 14 15  2  0
 31 32  2  0
 32 34  1  0
 33 29  1  0
 26 29  1  0
 15 16  1  0
 16 12  1  0
 33 34  1  0
  2 12  1  0
 34 35  2  0
 35 36  1  0
 16 17  1  0
 36 37  2  0
  5  6  1  0
 37 38  1  0
 38 33  2  0
 14 18  1  0
 36 39  1  0
M  END