
  SciTegic01111613442D

  9  9  0  0  0  0            999 V2000
    1.2990   -0.7500    0.0000 C   0  0
    1.2990    0.7500    0.0000 C   0  0
    0.0000    1.5000    0.0000 C   0  0
   -1.2990    0.7500    0.0000 C   0  0
   -1.2990   -0.7500    0.0000 C   0  0
    0.0000   -1.5000    0.0000 C   0  0
    2.5973   -1.5031    0.0000 C   0  0
    2.5951   -3.0039    0.0000 C   0  0
    3.6331   -3.6060    0.0000 N   0  0
  1  2  2  0
  1  6  1  0
  1  7  1  0
  3  2  1  0
  4  3  2  0
  5  4  1  0
  6  5  2  0
  8  7  1  0
  8  9  1  0
M  END