
  SciTegic12201615522D

 25 27  0  0  0  0            999 V2000
   -2.5905   -3.5979    0.0000 O   0  0
   -3.6267   -2.9927    0.0000 S   0  0
   -2.5844   -2.3981    0.0000 O   0  0
   -1.0028    1.5132    0.0000 C   0  0
   -2.3155    0.7475    0.0000 C   0  0
   -2.3155   -0.7475    0.0000 C   0  0
   -1.0028   -1.5132    0.0000 C   0  0
    0.2917    0.7475    0.0000 C   0  0
    0.2917   -0.7475    0.0000 C   0  0
    1.7138   -1.2033    0.0000 O   0  0
    2.5889    0.0182    0.0000 C   0  0
    1.7138    1.2033    0.0000 C   0  0
   -3.6187   -1.4919    0.0000 O   0  0
   -4.9300   -3.7369    0.0000 C   0  0
   -4.9371   -5.2369    0.0000 C   0  0
   -6.2397   -5.9808    0.0000 C   0  0
   -7.5351   -5.2246    0.0000 C   0  0
   -7.5280   -3.7247    0.0000 C   0  0
   -6.2255   -2.9808    0.0000 C   0  0
   -3.9007   -5.8418    0.0000 F   0  0
   -8.5772   -5.8197    0.0000 Cl  0  0
    2.1812    2.6271    0.0000 C   0  0
    3.6500    2.9355    0.0000 C   0  0
    4.0244    4.0756    0.0000 O   0  0
    4.4505    2.0415    0.0000 O   0  0
  2  1  2  0
  3  2  2  0
  4  5  2  0
  5  6  1  0
  6  7  2  0
  7  9  1  0
  8  4  1  0
  8  9  2  0
  9 10  1  0
 10 11  1  0
 11 12  2  0
 12  8  1  0
  6 13  1  0
 13  2  1  0
  2 14  1  0
 14 15  2  0
 15 16  1  0
 16 17  2  0
 17 18  1  0
 18 19  2  0
 19 14  1  0
 15 20  1  0
 17 21  1  0
 12 22  1  0
 22 23  1  0
 23 24  2  0
 23 25  1  0
M  END