
  SciTegic01161211262D

 32 35  0  0  0  0            999 V2000
    3.5059  -16.7780    0.0000 N   0  0
    4.1676  -16.2847    0.0000 C   0  0
    3.9030  -15.5029    0.0000 C   0  0
    3.0776  -15.5129    0.0000 N   0  0
    2.8324  -16.3004    0.0000 C   0  0
    2.1180  -16.7061    0.0000 C   0  0
    1.4070  -16.2855    0.0000 C   0  0
    0.6894  -16.6909    0.0000 C   0  0
    0.6816  -17.5168    0.0000 C   0  0
    1.3974  -17.9355    0.0000 C   0  0
    2.1121  -17.5277    0.0000 C   0  0
    4.3071  -14.7831    0.0000 C   0  0
    5.1321  -14.7732    0.0000 N   0  0
    3.8860  -14.0737    0.0000 O   0  0
    5.5359  -14.0537    0.0000 N   0  0
    6.3628  -14.0490    0.0000 C   0  0
    6.7668  -13.3355    0.0000 C   0  0
    6.3495  -12.6269    0.0000 C   0  0
    5.5234  -12.6331    0.0000 C   0  0
    5.1154  -13.3563    0.0000 C   0  0
    3.5181  -17.6008    0.0000 C   0  0
    2.8071  -18.0214    0.0000 C   0  0
    2.8168  -18.8456    0.0000 C   0  0
    3.5367  -19.2502    0.0000 C   0  0
    4.2485  -18.8245    0.0000 C   0  0
    4.2353  -18.0018    0.0000 C   0  0
   -0.0360  -17.9239    0.0000 Cl  0  0
    3.5479  -20.0751    0.0000 Cl  0  0
    1.4152  -15.4606    0.0000 Cl  0  0
    4.9553  -16.5300    0.0000 S   0  0
    5.1367  -17.3349    0.0000 C   0  0
    5.9243  -17.5802    0.0000 C   0  0
 15 16  1  0
  7  8  1  0
  3  4  1  0
  8  9  2  0
  4  5  2  0
  9 10  1  0
 15 20  1  0
 16 17  1  0
 17 18  1  0
 18 19  1  0
 19 20  1  0
  5  1  1  0
 10 11  2  0
 21 22  2  0
 11  6  1  0
 22 23  1  0
  5  6  1  0
 23 24  2  0
  1  2  1  0
 24 25  1  0
  3 12  1  0
 25 26  2  0
 26 21  1  0
  1 21  1  0
  9 27  1  0
 12 13  1  0
 24 28  1  0
  6  7  2  0
  7 29  1  0
 12 14  2  0
  2 30  1  0
  2  3  2  0
 30 31  1  0
 13 15  1  0
 31 32  1  0
M  END