
          11280715052D 1   1.00000     0.00000     0

 26 29  0     0  0            999 V2000
    5.3500   -3.5417    0.0000 S   0  0  3  0  0  0           0  0  0
    3.2042   -4.7625    0.0000 C   0  0  0  0  0  0           0  0  0
    5.3500   -2.7167    0.0000 C   0  0  0  0  0  0           0  0  0
    1.9250   -5.1625    0.0000 S   0  0  0  0  0  0           0  0  0
    3.2000   -5.5875    0.0000 C   0  0  0  0  0  0           0  0  0
    3.9167   -4.3542    0.0000 C   0  0  0  0  0  0           0  0  0
    5.3500   -4.3667    0.0000 N   0  0  0  0  0  0           0  0  0
    2.4167   -4.4917    0.0000 N   0  0  0  0  0  0           0  0  0
    2.4042   -5.8375    0.0000 N   0  0  0  0  0  0           0  0  0
    4.6375   -2.3042    0.0000 C   0  0  0  0  0  0           0  0  0
    4.6292   -4.7750    0.0000 C   0  0  0  0  0  0           0  0  0
    4.6375   -1.4792    0.0000 C   0  0  0  0  0  0           0  0  0
    3.9167   -1.0667    0.0000 C   0  0  0  0  0  0           0  0  0
    3.9125   -6.0042    0.0000 C   0  0  0  0  0  0           0  0  0
    6.0667   -3.9500    0.0000 O   0  0  0  0  0  0           0  0  0
    4.6375   -3.9542    0.0000 O   0  0  0  0  0  0           0  0  0
    4.6250   -5.5917    0.0000 C   0  0  0  0  0  0           0  0  0
    3.9125   -0.2417    0.0000 N   0  0  3  0  0  0           0  0  0
    6.0625   -2.3000    0.0000 C   0  0  0  0  0  0           0  0  0
    3.9167   -2.7250    0.0000 C   0  0  0  0  0  0           0  0  0
    5.3417   -1.0625    0.0000 C   0  0  0  0  0  0           0  0  0
    3.2042   -1.4792    0.0000 C   0  0  0  0  0  0           0  0  0
    6.0625   -1.4750    0.0000 C   0  0  0  0  0  0           0  0  0
    3.2042   -2.3125    0.0000 C   0  0  0  0  0  0           0  0  0
    4.6292    0.1708    0.0000 C   0  0  0  0  0  0           0  0  0
    3.2000    0.1708    0.0000 C   0  0  0  0  0  0           0  0  0
  2  6  1  0     0  0
  3  1  1  0     0  0
  4  8  1  0     0  0
  5 14  1  0     0  0
  6 11  2  0     0  0
  7  1  1  0     0  0
  8  2  2  0     0  0
  9  5  2  0     0  0
 10  3  1  0     0  0
 11  7  1  0     0  0
 12 10  1  0     0  0
 13 12  2  0     0  0
 14 17  2  0     0  0
 15  1  2  0     0  0
 16  1  2  0     0  0
 17 11  1  0     0  0
 18 13  1  0     0  0
 19  3  2  0     0  0
 20 10  2  0     0  0
 21 23  2  0     0  0
 22 24  2  0     0  0
 23 19  1  0     0  0
 24 20  1  0     0  0
 25 18  1  0     0  0
 26 18  1  0     0  0
 21 12  1  0     0  0
  5  2  1  0     0  0
 13 22  1  0     0  0
  4  9  1  0     0  0
M  END