
          05270816392D 1   1.00000     0.00000     0

 37 43  0     1  0            999 V2000
    9.1188  -17.5305    0.0000 C   0  0  0  0  0  0           0  0  0
    9.1176  -18.3535    0.0000 C   0  0  0  0  0  0           0  0  0
   10.5420  -17.5264    0.0000 C   0  0  0  0  0  0           0  0  0
    9.8331  -17.1177    0.0000 C   0  0  0  0  0  0           0  0  0
   10.5452  -18.3529    0.0000 C   0  0  0  0  0  0           0  0  0
    9.8339  -18.7674    0.0000 C   0  0  0  0  0  0           0  0  0
    9.8326  -19.5895    0.0000 C   0  0  0  0  0  0           0  0  0
   10.5454  -20.0034    0.0000 C   0  0  0  0  0  0           0  0  0
    8.5017  -18.9054    0.0000 N   0  0  0  0  0  0           0  0  0
    9.0481  -19.8440    0.0000 C   0  0  0  0  0  0           0  0  0
   11.2599  -18.7651    0.0000 C   0  0  2  0  0  0           0  0  0
   11.2607  -19.5929    0.0000 C   0  0  2  0  0  0           0  0  0
   11.9741  -20.0037    0.0000 N   0  0  3  0  0  0           0  0  0
   12.6912  -19.5913    0.0000 C   0  0  0  0  0  0           0  0  0
   12.6904  -18.7636    0.0000 C   0  0  1  0  0  0           0  0  0
   11.9724  -18.3482    0.0000 C   0  0  0  0  0  0           0  0  0
   11.2516  -20.4132    0.0000 H   0  0  0  0  0  0           0  0  0
   11.2516  -17.9383    0.0000 H   0  0  0  0  0  0           0  0  0
   13.4048  -18.3510    0.0000 C   0  0  0  0  0  0           0  0  0
   13.4048  -17.5261    0.0000 O   0  0  0  0  0  0           0  0  0
   14.1192  -18.7635    0.0000 N   0  0  3  0  0  0           0  0  0
   14.1141  -19.5938    0.0000 C   0  0  0  0  0  0           0  0  0
   14.8245  -20.0061    0.0000 C   0  0  0  0  0  0           0  0  0
   15.5413  -19.5972    0.0000 N   0  0  3  0  0  0           0  0  0
   15.5432  -18.7713    0.0000 C   0  0  0  0  0  0           0  0  0
   14.8283  -18.3543    0.0000 C   0  0  0  0  0  0           0  0  0
   16.2542  -20.0124    0.0000 C   0  0  0  0  0  0           0  0  0
   16.2462  -20.8361    0.0000 C   0  0  0  0  0  0           0  0  0
   16.9582  -21.2513    0.0000 C   0  0  0  0  0  0           0  0  0
   16.9630  -19.6008    0.0000 N   0  0  0  0  0  0           0  0  0
   11.9738  -20.8287    0.0000 C   0  0  0  0  0  0           0  0  0
   18.4615  -21.0983    0.0000 N   0  0  0  0  0  0           0  0  0
   18.9498  -20.4289    0.0000 S   0  0  0  0  0  0           0  0  0
   18.4641  -19.7576    0.0000 N   0  0  0  0  0  0           0  0  0
   17.6756  -20.0122    0.0000 C   0  0  0  0  0  0           0  0  0
   17.6740  -20.8408    0.0000 C   0  0  0  0  0  0           0  0  0
    8.7537  -20.6146    0.0000 Br  0  0  0  0  0  0           0  0  0
 12 17  1  1     0  0
  7  8  1  0     0  0
 11 18  1  6     0  0
  8 12  1  0     0  0
 15 19  1  1     0  0
  3  4  2  0     0  0
 19 20  2  0     0  0
  2  9  1  0     0  0
 19 21  1  0     0  0
 21 22  1  0     0  0
  4  1  1  0     0  0
  7 10  2  0     0  0
  9 10  1  0     0  0
 11 12  1  0     0  0
  5  6  2  0     0  0
 21 26  1  0     0  0
 22 23  1  0     0  0
 23 24  1  0     0  0
 24 25  1  0     0  0
 25 26  1  0     0  0
  2  6  1  0     0  0
 24 27  1  0     0  0
 27 28  1  0     0  0
  5  3  1  0     0  0
 28 29  2  0     0  0
 29 36  1  0     0  0
  1  2  2  0     0  0
 35 30  1  0     0  0
 30 27  2  0     0  0
  5 11  1  0     0  0
 13 31  1  0     0  0
 35 36  1  0     0  0
 11 16  1  0     0  0
 12 13  1  0     0  0
 33 34  1  0     0  0
 13 14  1  0     0  0
 14 15  1  0     0  0
 15 16  1  0     0  0
 32 33  1  0     0  0
 34 35  2  0     0  0
 36 32  2  0     0  0
  6  7  1  0     0  0
 10 37  1  0     0  0
M  END