
          11280715492D 1   1.00000     0.00000     0

 26 29  0     0  0            999 V2000
    0.3484   -8.0032    0.0000 C   0  0  0  0  0  0           0  0  0
   -0.4472   -7.8786    0.0000 N   0  0  3  0  0  0           0  0  0
    0.0026   -7.3278    0.0000 C   0  0  0  0  0  0           0  0  0
   -1.1401   -8.4412    0.0000 C   0  0  0  0  0  0           0  0  0
   -0.5927   -6.8660    0.0000 C   0  0  0  0  0  0           0  0  0
   -0.7808   -7.2133    0.0000 C   0  0  3  0  0  0           0  0  0
   -1.4410   -7.7602    0.0000 C   0  0  3  0  0  0           0  0  0
   -0.9835   -6.3616    0.0000 C   0  0  0  0  0  0           0  0  0
   -1.8711   -7.0518    0.0000 O   0  0  0  0  0  0           0  0  0
   -2.6941   -7.0700    0.0000 C   0  0  0  0  0  0           0  0  0
   -2.1551   -8.1827    0.0000 C   0  0  0  0  0  0           0  0  0
   -2.8652   -8.6048    0.0000 C   0  0  0  0  0  0           0  0  0
   -3.5751   -9.0268    0.0000 C   0  0  3  0  0  0           0  0  0
   -4.2852   -9.4488    0.0000 C   0  0  0  0  0  0           0  0  0
   -3.1545   -9.7345    0.0000 C   0  0  0  0  0  0           0  0  0
   -3.9957   -8.3191    0.0000 O   0  0  0  0  0  0           0  0  0
   -5.0073   -9.0455    0.0000 C   0  0  0  0  0  0           0  0  0
   -5.7134   -9.4659    0.0000 C   0  0  0  0  0  0           0  0  0
   -5.7034  -10.2928    0.0000 C   0  0  0  0  0  0           0  0  0
   -4.9806  -10.6972    0.0000 C   0  0  0  0  0  0           0  0  0
   -4.2747  -10.2737    0.0000 C   0  0  0  0  0  0           0  0  0
   -3.1406  -11.1595    0.0000 N   0  0  0  0  0  0           0  0  0
   -2.3164  -11.1482    0.0000 C   0  0  0  0  0  0           0  0  0
   -1.9164  -10.4329    0.0000 C   0  0  0  0  0  0           0  0  0
   -2.3359   -9.7242    0.0000 C   0  0  0  0  0  0           0  0  0
   -3.5646  -10.4554    0.0000 C   0  0  0  0  0  0           0  0  0
  2  5  1  0     0  0
 12 13  1  0     0  0
  3  6  1  0     0  0
 13 14  1  0     0  0
  4  7  1  0     0  0
 13 15  1  0     0  0
  5  8  1  0     0  0
 13 16  1  0     0  0
  6  7  1  0     0  0
 14 17  2  0     0  0
  6  8  1  0     0  0
 17 18  1  0     0  0
 18 19  2  0     0  0
  7  9  1  0     0  0
 19 20  1  0     0  0
  1  2  1  0     0  0
 20 21  2  0     0  0
 21 14  1  0     0  0
  9 10  1  0     0  0
  1  3  1  0     0  0
  7 11  1  0     0  0
  2  4  1  0     0  0
 11 12  3  0     0  0
 22 26  2  0     0  0
 22 23  1  0     0  0
 23 24  2  0     0  0
 24 25  1  0     0  0
 25 15  2  0     0  0
 15 26  1  0     0  0
M  END