
  SciTegic01161211252D

 18 17  0  0  0  0            999 V2000
    3.7167   -3.1292    0.0000 C   0  0
    3.0167   -2.7292    0.0000 P   0  0
    7.1792   -2.7167    0.0000 P   0  0
    6.4792   -3.1167    0.0000 C   0  0
    4.4042   -2.7292    0.0000 C   0  0
    2.2417   -3.3792    0.0000 O   0  0
    2.0792   -2.4000    0.0000 O   0  0
    7.8667   -3.1292    0.0000 O   0  0
    7.8667   -2.3167    0.0000 O   0  0
    3.0125   -1.9292    0.0000 O   0  0
    7.1667   -1.9125    0.0000 O   0  0
    5.7917   -2.7167    0.0000 C   0  0
    3.3042   -3.8167    0.0000 F   0  0
    4.1042   -3.8167    0.0000 F   0  0
    5.0917   -3.1292    0.0000 C   0  0
    4.4000   -1.9250    0.0000 O   0  0
    5.9125   -3.6875    0.0000 F   0  0
    7.0417   -3.6875    0.0000 F   0  0
  2  1  1  0
  3  4  1  0
  4 12  1  0
  5  1  1  0
  6  2  1  0
  7  2  1  0
  8  3  1  0
  9  3  1  0
 10  2  2  0
 11  3  2  0
 12 15  1  0
 13  1  1  0
 14  1  1  0
 15  5  1  0
 16  5  2  0
 17  4  1  0
 18  4  1  0
M  END