
          11280715272D 1   1.00000     0.00000     0

 47 49  0     0  0            999 V2000
   -1.5708   -2.9000    0.0000 N   0  0  3  0  0  0           0  0  0
   -2.3333   -3.2000    0.0000 C   0  0  0  0  0  0           0  0  0
   -2.1125   -4.6667    0.0000 C   0  0  0  0  0  0           0  0  0
   -2.5833   -3.9792    0.0000 C   0  0  0  0  0  0           0  0  0
   -0.8583   -3.3042    0.0000 C   0  0  0  0  0  0           0  0  0
   -1.2958   -4.7292    0.0000 N   0  0  0  0  0  0           0  0  0
   -0.7333   -4.1250    0.0000 C   0  0  0  0  0  0           0  0  0
   -1.5708   -2.0750    0.0000 C   0  0  0  0  0  0           0  0  0
    1.2875    0.4083    0.0000 C   0  0  0  0  0  0           0  0  0
    9.1292    0.8333    0.0000 C   0  0  0  0  0  0           0  0  0
   -0.2125   -2.7917    0.0000 N   0  0  0  0  0  0           0  0  0
   -2.5250   -5.3792    0.0000 O   0  0  0  0  0  0           0  0  0
    2.0000    0.8208    0.0000 N   0  0  3  0  0  0           0  0  0
    8.4167    0.4208    0.0000 N   0  0  3  0  0  0           0  0  0
   -2.2833   -1.6625    0.0000 O   0  0  0  0  0  0           0  0  0
    1.2875   -0.4167    0.0000 O   0  0  0  0  0  0           0  0  0
    9.1292    1.6583    0.0000 O   0  0  0  0  0  0           0  0  0
   -3.3833   -4.1625    0.0000 C   0  0  0  0  0  0           0  0  0
   -2.8833   -2.6000    0.0000 C   0  0  0  0  0  0           0  0  0
   -0.8583   -0.8375    0.0000 N   0  0  0  0  0  0           0  0  0
   -0.8583   -1.6625    0.0000 C   0  0  0  0  0  0           0  0  0
   10.5667   -1.6375    0.0000 N   0  0  0  0  0  0           0  0  0
    0.0292   -4.4250    0.0000 C   0  0  0  0  0  0           0  0  0
    0.5667    0.8208    0.0000 C   0  0  0  0  0  0           0  0  0
    9.8417    0.4208    0.0000 C   0  0  0  0  0  0           0  0  0
    0.5542   -3.0917    0.0000 C   0  0  0  0  0  0           0  0  0
    7.7000    0.8333    0.0000 C   0  0  0  0  0  0           0  0  0
    2.7125    0.4083    0.0000 C   0  0  0  0  0  0           0  0  0
    8.4167   -0.4042    0.0000 C   0  0  0  0  0  0           0  0  0
    2.0000    1.6458    0.0000 C   0  0  0  0  0  0           0  0  0
   -1.5708   -0.4250    0.0000 C   0  0  0  0  0  0           0  0  0
   10.5625   -0.8125    0.0000 C   0  0  0  0  0  0           0  0  0
   -0.1458    0.4083    0.0000 C   0  0  0  0  0  0           0  0  0
   10.5542    0.8375    0.0000 C   0  0  0  0  0  0           0  0  0
    3.4250    0.8208    0.0000 C   0  0  0  0  0  0           0  0  0
    6.9875    0.4208    0.0000 C   0  0  0  0  0  0           0  0  0
   -1.5708    0.4000    0.0000 C   0  0  0  0  0  0           0  0  0
   11.2750   -0.4000    0.0000 C   0  0  0  0  0  0           0  0  0
    0.6792   -3.9125    0.0000 C   0  0  0  0  0  0           0  0  0
   -3.9333   -3.5542    0.0000 C   0  0  0  0  0  0           0  0  0
   -3.6833   -2.7667    0.0000 C   0  0  0  0  0  0           0  0  0
   11.2667    0.4250    0.0000 C   0  0  0  0  0  0           0  0  0
    4.1375    0.4125    0.0000 C   0  0  0  0  0  0           0  0  0
    4.8500    0.8250    0.0000 C   0  0  0  0  0  0           0  0  0
    5.5625    0.4125    0.0000 C   0  0  0  0  0  0           0  0  0
    6.2750    0.8250    0.0000 C   0  0  0  0  0  0           0  0  0
   -0.8583    0.8125    0.0000 C   0  0  0  0  0  0           0  0  0
  2  1  1  0     0  0
  3  4  1  0     0  0
  4  2  2  0     0  0
  5  1  1  0     0  0
  6  7  1  0     0  0
  7  5  2  0     0  0
  8  1  1  0     0  0
  9 24  1  0     0  0
 10 14  1  0     0  0
 11  5  1  0     0  0
 12  3  2  0     0  0
 13  9  1  0     0  0
 14 27  1  0     0  0
 15  8  2  0     0  0
 16  9  2  0     0  0
 17 10  2  0     0  0
 18  4  1  0     0  0
 19  2  1  0     0  0
 20 21  1  0     0  0
 21  8  1  0     0  0
 22 32  1  0     0  0
 23  7  1  0     0  0
 24 33  1  0     0  0
 25 10  1  0     0  0
 26 11  2  0     0  0
 27 36  1  0     0  0
 28 13  1  0     0  0
 29 14  1  0     0  0
 30 13  1  0     0  0
 31 20  1  0     0  0
 32 38  1  0     0  0
 33 47  1  0     0  0
 34 25  1  0     0  0
 35 28  1  0     0  0
 36 46  1  0     0  0
 37 31  1  0     0  0
 38 42  1  0     0  0
 39 26  1  0     0  0
 40 41  1  0     0  0
 41 19  2  0     0  0
 42 34  1  0     0  0
 43 35  1  0     0  0
 44 43  1  0     0  0
 45 44  1  0     0  0
 46 45  1  0     0  0
 47 37  1  0     0  0
  3  6  1  0     0  0
 23 39  2  0     0  0
 18 40  2  0     0  0
M  END