
  Mrv0541 04051115152D          

 26 28  0  0  0  0            999 V2000
   -0.2849    1.0077    0.0000 C   0  0  0  0  0  0  0  0  0  0  0  0
   -0.2849    0.1827    0.0000 C   0  0  0  0  0  0  0  0  0  0  0  0
   -0.9994   -0.2298    0.0000 C   0  0  0  0  0  0  0  0  0  0  0  0
   -1.7138    0.1827    0.0000 C   0  0  0  0  0  0  0  0  0  0  0  0
   -2.4283   -0.2298    0.0000 C   0  0  0  0  0  0  0  0  0  0  0  0
   -3.1428    0.1827    0.0000 C   0  0  0  0  0  0  0  0  0  0  0  0
   -3.1428    1.0077    0.0000 C   0  0  0  0  0  0  0  0  0  0  0  0
   -3.8573    1.4202    0.0000 C   0  0  0  0  0  0  0  0  0  0  0  0
   -3.8573    2.2452    0.0000 O   0  0  0  0  0  0  0  0  0  0  0  0
   -4.5717    1.0077    0.0000 O   0  0  0  0  0  0  0  0  0  0  0  0
   -2.4283    1.4202    0.0000 C   0  0  0  0  0  0  0  0  0  0  0  0
   -1.7138    1.0077    0.0000 C   0  0  0  0  0  0  0  0  0  0  0  0
    0.4296   -0.2298    0.0000 C   0  0  0  0  0  0  0  0  0  0  0  0
    0.4296   -1.0548    0.0000 C   0  0  0  0  0  0  0  0  0  0  0  0
    1.1440   -1.4673    0.0000 C   0  0  0  0  0  0  0  0  0  0  0  0
    1.8585   -1.0548    0.0000 C   0  0  0  0  0  0  0  0  0  0  0  0
    1.8585   -0.2298    0.0000 C   0  0  0  0  0  0  0  0  0  0  0  0
    1.1440    0.1827    0.0000 C   0  0  0  0  0  0  0  0  0  0  0  0
    2.5730    0.1827    0.0000 C   0  0  0  0  0  0  0  0  0  0  0  0
    2.0427    0.8147    0.0000 C   0  0  0  0  0  0  0  0  0  0  0  0
    3.1033    0.8147    0.0000 C   0  0  0  0  0  0  0  0  0  0  0  0
    3.2874   -0.2298    0.0000 C   0  0  0  0  0  0  0  0  0  0  0  0
    3.2874   -1.0548    0.0000 C   0  0  0  0  0  0  0  0  0  0  0  0
    2.5730   -1.4673    0.0000 C   0  0  0  0  0  0  0  0  0  0  0  0
    2.1857   -2.1957    0.0000 C   0  0  0  0  0  0  0  0  0  0  0  0
    2.9603   -2.1957    0.0000 C   0  0  0  0  0  0  0  0  0  0  0  0
  1  2  1  0  0  0  0
  2  3  2  0  0  0  0
 13  2  1  0  0  0  0
  3  4  1  0  0  0  0
  4  5  2  0  0  0  0
 12  4  1  0  0  0  0
  5  6  1  0  0  0  0
  6  7  2  0  0  0  0
  7  8  1  0  0  0  0
  7 11  1  0  0  0  0
  8  9  1  0  0  0  0
  8 10  2  0  0  0  0
 12 11  2  0  0  0  0
 13 14  2  0  0  0  0
 13 18  1  0  0  0  0
 14 15  1  0  0  0  0
 15 16  2  0  0  0  0
 16 17  1  0  0  0  0
 16 24  1  0  0  0  0
 17 18  2  0  0  0  0
 17 19  1  0  0  0  0
 19 20  1  0  0  0  0
 19 21  1  0  0  0  0
 19 22  1  0  0  0  0
 22 23  1  0  0  0  0
 23 24  1  0  0  0  0
 24 25  1  0  0  0  0
 24 26  1  0  0  0  0
M  END