
  SciTegic11021510542D

 20 19  0  0  0  0            999 V2000
   -5.1706   -0.6588    0.0000 C   0  0
   -5.8851   -0.2463    0.0000 O   0  0
   -5.1706   -1.4838    0.0000 O   0  0
   -4.4561   -0.2463    0.0000 C   0  0
   -3.7417   -0.6588    0.0000 C   0  0
   -3.0272   -0.2463    0.0000 C   0  0
   -2.3127   -0.6588    0.0000 C   0  0
   -1.5982   -0.2463    0.0000 C   0  0
   -0.8838   -0.6588    0.0000 C   0  0
   -0.1693   -0.2463    0.0000 C   0  0
    0.5452   -0.6588    0.0000 C   0  0
    1.2596   -0.2463    0.0000 C   0  0
    1.2596    0.5787    0.0000 C   0  0
    1.9741    0.9912    0.0000 C   0  0
    2.6886    0.5787    0.0000 C   0  0
    3.4030    0.9912    0.0000 C   0  0
    4.1175    0.5787    0.0000 C   0  0
    4.8320    0.9912    0.0000 C   0  0
    5.5465    0.5787    0.0000 C   0  0
    6.2609    0.9912    0.0000 C   0  0
  1  2  2  0
  1  3  1  0
  1  4  1  0
  4  5  1  0
  5  6  1  0
  6  7  1  0
  7  8  1  0
  8  9  1  0
  9 10  1  0
 10 11  1  0
 12 11  2  0
 12 13  1  0
 13 14  1  0
 14 15  1  0
 15 16  1  0
 16 17  1  0
 17 18  1  0
 18 19  1  0
 19 20  1  0
M  END