
  SciTegic12231509382D

 31 33  0  0  1  0            999 V2000
    3.1992   -3.0280    0.0000 C   0  0
    2.3834   -3.1510    0.0000 O   0  0
    1.8690   -2.5059    0.0000 C   0  0
    1.0533   -2.6289    0.0000 C   0  0
    0.5389   -1.9839    0.0000 C   0  0
    0.8403   -1.2159    0.0000 C   0  0
    1.6561   -1.0930    0.0000 C   0  0
    2.1705   -1.7380    0.0000 C   0  0
    0.3259   -0.5709    0.0000 C   0  0  2  0  0  0
   -0.4784   -0.7545    0.0000 C   0  0
   -1.1234   -0.2401    0.0000 C   0  0
   -1.8379   -0.6526    0.0000 C   0  0
   -1.8379   -1.4776    0.0000 O   0  0
   -2.5524   -1.8901    0.0000 C   0  0
   -2.5524   -0.2401    0.0000 C   0  0
   -2.5524    0.5849    0.0000 C   0  0
   -1.8379    0.9974    0.0000 C   0  0
   -1.1234    0.5849    0.0000 C   0  0
   -0.4784    1.0993    0.0000 N   0  0
   -0.6620    1.9036    0.0000 C   0  0
   -1.4503    2.1468    0.0000 C   0  0
   -1.6339    2.9511    0.0000 N   0  0
   -2.4223    3.1942    0.0000 C   0  0
   -1.0291    3.5122    0.0000 C   0  0
    0.3259    0.9157    0.0000 C   0  0
    0.8403    1.5607    0.0000 O   0  0
    0.6839    0.1724    0.0000 C   0  0  2  0  0  0
    1.5089    0.1724    0.0000 O   0  0
    1.9214    0.8869    0.0000 C   0  0
    1.5089    1.6013    0.0000 O   0  0
    2.7464    0.8869    0.0000 C   0  0
  1  2  1  0
  2  3  1  0
  3  4  2  0
  4  5  1  0
  5  6  2  0
  6  7  1  0
  7  8  2  0
  3  8  1  0
  9  6  1  6
  9 10  1  0
 10 11  1  0
 11 12  2  0
 12 13  1  0
 13 14  1  0
 12 15  1  0
 15 16  2  0
 16 17  1  0
 17 18  2  0
 11 18  1  0
 18 19  1  0
 19 20  1  0
 20 21  1  0
 21 22  1  0
 22 23  1  0
 22 24  1  0
 19 25  1  0
 25 26  2  0
 25 27  1  0
  9 27  1  0
 27 28  1  6
 28 29  1  0
 29 30  2  0
 29 31  1  0
M  END