
  SciTegic10311316292D

 35 39  0  0  0  0            999 V2000
   10.2679  -14.3291    0.0000 C   0  0
   10.3092  -13.5056    0.0000 F   0  0
    9.5754  -13.8816    0.0000 F   0  0
   16.5107  -12.0303    0.0000 N   0  0
   15.6861  -12.0294    0.0000 N   0  0
   15.4324  -12.8133    0.0000 C   0  0
   16.0969  -13.2985    0.0000 N   0  0
   16.7667  -12.8148    0.0000 C   0  0
   17.5492  -13.0699    0.0000 C   0  0
   17.7190  -13.8779    0.0000 C   0  0
   18.5021  -14.1334    0.0000 C   0  0
   19.1163  -13.5819    0.0000 C   0  0
   18.9420  -12.7716    0.0000 C   0  0
   18.1590  -12.5199    0.0000 C   0  0
   14.6455  -13.0664    0.0000 C   0  0
   16.0948  -14.1231    0.0000 C   0  0
   17.9860  -11.7137    0.0000 C   0  0
   18.5976  -11.1608    0.0000 F   0  0
   17.2013  -11.4605    0.0000 F   0  0
   17.7673  -10.9125    0.0000 F   0  0
   14.0323  -12.5123    0.0000 C   0  0
   13.2482  -12.7625    0.0000 C   0  0
   13.0698  -13.5700    0.0000 C   0  0
   13.6818  -14.1270    0.0000 C   0  0
   14.4723  -13.8765    0.0000 C   0  0
   14.0569  -13.6485    0.0000 C   0  0
   13.6405  -12.9322    0.0000 C   0  0
   12.3792  -14.0206    0.0000 C   0  0
   11.6089  -13.7285    0.0000 N   0  0
   11.0914  -14.3705    0.0000 C   0  0
   11.5420  -15.0610    0.0000 O   0  0
   12.3379  -14.8458    0.0000 N   0  0
    9.8203  -15.0216    0.0000 C   0  0
   19.9006  -13.8362    0.0000 T   0  0
   18.6726  -14.9401    0.0000 T   0  0
  2  1  1  0
  1  3  1  0
  4  5  1  0
  5  6  2  0
  6  7  1  0
  7  8  1  0
  8  4  2  0
  9 10  2  0
 10 11  1  0
 11 12  2  0
 12 13  1  0
 13 14  2  0
 14  9  1  0
  8  9  1  0
  6 15  1  0
  7 16  1  0
 14 17  1  0
 17 18  1  0
 17 19  1  0
 17 20  1  0
 15 21  1  0
 15 25  1  0
 21 22  1  0
 22 23  1  0
 23 24  1  0
 24 25  1  0
 15 26  1  0
 26 27  1  0
 27 23  1  0
 23 28  1  0
 28 29  1  0
 29 30  2  0
 30 31  1  0
 31 32  1  0
 32 28  2  0
 30  1  1  0
  1 33  1  0
 12 34  1  0
 11 35  1  0
M  END