
  SciTegic01161211252D

 14 13  0  0  0  0            999 V2000
    3.1167   -3.0167    0.0000 P   0  0
    7.0875   -3.0042    0.0000 P   0  0
    3.7875   -3.4042    0.0000 C   0  0
    2.1000   -3.4875    0.0000 O   0  0
    2.1125   -2.5917    0.0000 O   0  0
    7.8125   -3.3042    0.0000 O   0  0
    7.8500   -2.5500    0.0000 O   0  0
    3.1167   -2.2542    0.0000 O   0  0
    7.0792   -2.2417    0.0000 O   0  0
    4.4417   -3.0125    0.0000 C   0  0
    4.4417   -2.2417    0.0000 O   0  0
    6.4292   -3.3917    0.0000 C   0  0
    5.7667   -3.0042    0.0000 C   0  0
    5.1042   -3.3917    0.0000 C   0  0
  2 12  1  0
  3  1  1  0
  4  1  1  0
  5  1  1  0
  6  2  1  0
  7  2  1  0
  8  1  2  0
  9  2  2  0
 10  3  1  0
 11 10  2  0
 12 13  1  0
 13 14  1  0
 14 10  1  0
M  END