
  SciTegic10011413212D

 41 46  0  0  0  0            999 V2000
   20.0858  -10.1323    0.0000 C   0  0
   20.0847  -10.9518    0.0000 C   0  0
   20.7927  -11.3608    0.0000 C   0  0
   20.7909   -9.7234    0.0000 C   0  0
   21.4995  -10.1287    0.0000 C   0  0
   21.5003  -10.9477    0.0000 C   0  0
   22.2088  -11.3548    0.0000 C   0  0
   22.9171  -10.9440    0.0000 N   0  0
   22.9124  -10.1218    0.0000 C   0  0  1  0  0  0
   22.2033   -9.7185    0.0000 C   0  0  1  0  0  0
   22.1989   -8.9013    0.0000 C   0  0
   22.9044   -8.4862    0.0000 O   0  0
   21.4890   -8.4937    0.0000 N   0  0
   22.2105  -12.1720    0.0000 O   0  0
   23.6264  -11.3498    0.0000 C   0  0
   23.6296  -12.1670    0.0000 C   0  0
   22.9240  -12.5734    0.0000 C   0  0
   22.9269  -13.3899    0.0000 C   0  0
   23.6367  -13.7965    0.0000 C   0  0
   24.3451  -13.3808    0.0000 C   0  0
   24.3388  -12.5657    0.0000 C   0  0
   23.6410  -14.6137    0.0000 Cl  0  0
   23.6176   -9.7089    0.0000 C   0  0
   20.7823   -8.9040    0.0000 C   0  0
   20.0736   -8.4972    0.0000 C   0  0
   19.3669   -8.9075    0.0000 N   0  0
   18.6603   -8.4971    0.0000 C   0  0
   17.9557   -8.9040    0.0000 C   0  0
   17.9534   -9.7215    0.0000 N   0  0
   18.6620  -10.1306    0.0000 C   0  0
   19.3728   -9.7221    0.0000 C   0  0
   17.2452  -10.1291    0.0000 C   0  0
   24.4954   -8.7185    0.0000 N   0  0
   23.6972   -8.8934    0.0000 C   0  0
   24.9084   -9.4237    0.0000 C   0  0
   24.3667  -10.0318    0.0000 C   0  0
   24.6227  -10.8029    0.0000 C   0  0
   25.4201  -10.9670    0.0000 C   0  0
   25.9609  -10.3540    0.0000 C   0  0
   25.7020   -9.5853    0.0000 C   0  0
   26.7620  -10.5156    0.0000 Cl  0  0
  1  2  2  0
  2  3  1  0
  3  6  2  0
  5  4  2  0
  4  1  1  0
  5  6  1  0
  6  7  1  0
  7  8  1  0
  8  9  1  0
  9 10  1  0
 10  5  1  0
 10 11  1  6
 11 12  2  0
 11 13  1  0
  7 14  2  0
  8 15  1  0
 15 16  1  0
 16 17  2  0
 17 18  1  0
 18 19  2  0
 19 20  1  0
 20 21  2  0
 21 16  1  0
 19 22  1  0
  9 23  1  1
 13 24  1  0
 24 25  1  0
 25 26  1  0
 26 27  1  0
 26 31  1  0
 27 28  1  0
 28 29  1  0
 29 30  1  0
 30 31  1  0
 29 32  1  0
 23 36  1  0
 35 33  1  0
 33 34  1  0
 34 23  2  0
 35 36  2  0
 36 37  1  0
 37 38  2  0
 38 39  1  0
 39 40  2  0
 40 35  1  0
 39 41  1  0
M  END