
          05080814042D 1   1.00000     0.00000     0

 31 35  0     1  0            999 V2000
   -5.0866   -2.5342    0.0000 C   0  0  0  0  0  0           0  0  0
   -5.0878   -3.3592    0.0000 C   0  0  0  0  0  0           0  0  0
   -4.3751   -3.7709    0.0000 C   0  0  0  0  0  0           0  0  0
   -4.3769   -2.1227    0.0000 C   0  0  0  0  0  0           0  0  0
   -3.6635   -2.5306    0.0000 C   0  0  0  0  0  0           0  0  0
   -3.6601   -3.3613    0.0000 C   0  0  0  0  0  0           0  0  0
   -2.9430   -3.7714    0.0000 C   0  0  0  0  0  0           0  0  0
   -2.9498   -2.1101    0.0000 C   0  0  0  0  0  0           0  0  0
   -2.2281   -2.5248    0.0000 C   0  0  2  0  0  0           0  0  0
   -2.2271   -3.3570    0.0000 C   0  0  2  0  0  0           0  0  0
   -1.5097   -3.7700    0.0000 N   0  0  3  0  0  0           0  0  0
   -0.7888   -3.3552    0.0000 C   0  0  0  0  0  0           0  0  0
   -0.7899   -2.5229    0.0000 C   0  0  1  0  0  0           0  0  0
   -1.5118   -2.1054    0.0000 C   0  0  0  0  0  0           0  0  0
   -1.5098   -4.5926    0.0000 C   0  0  0  0  0  0           0  0  0
   -0.0776   -2.1114    0.0000 C   0  0  0  0  0  0           0  0  0
    0.6350   -2.5226    0.0000 N   0  0  3  0  0  0           0  0  0
   -0.0778   -1.2887    0.0000 O   0  0  0  0  0  0           0  0  0
    0.6294   -3.3499    0.0000 C   0  0  0  0  0  0           0  0  0
    1.3378   -3.7609    0.0000 C   0  0  0  0  0  0           0  0  0
    2.0525   -3.3529    0.0000 N   0  0  3  0  0  0           0  0  0
    2.0543   -2.5293    0.0000 C   0  0  0  0  0  0           0  0  0
    1.3413   -2.1137    0.0000 C   0  0  0  0  0  0           0  0  0
   -2.2352   -4.1795    0.0000 H   0  0  0  0  0  0           0  0  0
   -2.2352   -1.6993    0.0000 H   0  0  0  0  0  0           0  0  0
    2.7635   -3.7667    0.0000 C   0  0  0  0  0  0           0  0  0
    2.7572   -4.5877    0.0000 C   0  0  0  0  0  0           0  0  0
    3.4672   -5.0014    0.0000 C   0  0  0  0  0  0           0  0  0
    4.1820   -4.5925    0.0000 C   0  0  0  0  0  0           0  0  0
    4.1823   -3.7657    0.0000 C   0  0  0  0  0  0           0  0  0
    3.4716   -3.3557    0.0000 N   0  0  0  0  0  0           0  0  0
  1  2  2  0     0  0
 11 15  1  0     0  0
  5  8  1  0     0  0
 13 16  1  1     0  0
  6  7  1  0     0  0
 16 17  1  0     0  0
  7 10  1  0     0  0
 16 18  2  0     0  0
 17 19  1  0     0  0
  9  8  1  0     0  0
  9 10  1  0     0  0
  5  4  2  0     0  0
  4  1  1  0     0  0
  5  6  1  0     0  0
 17 23  1  0     0  0
 19 20  1  0     0  0
 20 21  1  0     0  0
 21 22  1  0     0  0
 22 23  1  0     0  0
 10 24  1  1     0  0
  2  3  1  0     0  0
  9 25  1  6     0  0
  3  6  2  0     0  0
 21 26  1  0     0  0
  9 14  1  0     0  0
 26 27  2  0     0  0
 10 11  1  0     0  0
 27 28  1  0     0  0
 11 12  1  0     0  0
 28 29  2  0     0  0
 12 13  1  0     0  0
 29 30  1  0     0  0
 13 14  1  0     0  0
 30 31  2  0     0  0
 31 26  1  0     0  0
M  END