
  SciTegic10301317112D

 69 72  0  0  1  0            999 V2000
   13.1628   -3.5284    0.0000 N   0  0
   12.4582   -3.1160    0.0000 C   0  0
    3.8663   -3.1676    0.0000 C   0  0
    8.1623   -3.1332    0.0000 C   0  0
   10.3103   -3.5284    0.0000 C   0  0
    6.0201   -3.5628    0.0000 C   0  0
   13.9360   -3.8206    0.0000 C   0  0  2  0  0  0
    4.5881   -3.5800    0.0000 N   0  0
    3.1504   -3.5972    0.0000 C   0  0  1  0  0  0
    6.7246   -3.1504    0.0000 N   0  0
    8.8840   -3.5456    0.0000 N   0  0
   11.0206   -3.0989    0.0000 N   0  0
    5.2926   -3.1504    0.0000 C   0  0  1  0  0  0
    7.4463   -3.5456    0.0000 C   0  0  2  0  0  0
    9.5943   -3.1160    0.0000 C   0  0  1  0  0  0
   14.1480   -4.6282    0.0000 C   0  0
   11.7423   -3.5284    0.0000 C   0  0  1  0  0  0
   13.1284   -6.8449    0.0000 C   0  0
    2.4401   -3.1848    0.0000 N   0  0
    1.7184   -3.5972    0.0000 C   0  0
    0.9967   -2.3600    0.0000 C   0  0
    1.0024   -3.1848    0.0000 C   0  0
   12.4125   -7.2401    0.0000 N   0  0
   12.4640   -2.2912    0.0000 O   0  0
    0.4124   -1.7757    0.0000 C   0  0
    0.6244   -0.9795    0.0000 C   0  0
    3.8549   -2.3428    0.0000 O   0  0
    6.0201   -4.3876    0.0000 O   0  0
    8.1509   -2.3084    0.0000 O   0  0
   10.3160   -4.3533    0.0000 O   0  0
    5.2926   -2.3256    0.0000 C   0  0
   13.5580   -5.2125    0.0000 O   0  0
    9.5771   -2.2912    0.0000 C   0  0
    7.4578   -4.3705    0.0000 C   0  0
    1.7242   -4.4220    0.0000 O   0  0
   13.1342   -6.0201    0.0000 N   0  0
   14.9385   -4.8344    0.0000 N   0  0
   13.8387   -7.2573    0.0000 N   0  0
   13.2029   -2.7036    0.0000 C   0  0
    0.0401   -0.3952    0.0000 C   0  0
    6.0029   -1.9132    0.0000 C   0  0
    7.4292   -1.0712    0.0000 C   0  0
    3.1618   -4.4048    0.0000 C   0  0
    6.7246   -2.3084    0.0000 C   0  0
    5.9971   -1.0884    0.0000 C   0  0
    7.4406   -1.8960    0.0000 C   0  0
    6.7074   -0.6588    0.0000 C   0  0
   14.4573   -3.1848    0.0000 C   0  0
    8.1337   -0.6588    0.0000 O   0  0
    3.8721   -4.8172    0.0000 O   0  0
   14.0105   -2.4974    0.0000 C   0  0
   11.7251   -4.3533    0.0000 C   0  0
   -0.9737   -1.4148    0.0000 C   0  0
    8.1681   -4.7829    0.0000 C   0  0
   10.2931   -1.8788    0.0000 C   0  0
   -0.3895   -1.9933    0.0000 C   0  0
    1.4148   -0.7619    0.0000 C   0  0
   -0.7561   -0.6072    0.0000 C   0  0
   15.1447   -5.6421    0.0000 C   0  0
   12.4296   -5.6077    0.0000 C   0  0
    0.2578    0.3952    0.0000 C   0  0
   12.4411   -4.7829    0.0000 C   0  0
   11.0148   -2.2740    0.0000 C   0  0
    8.8554   -4.3189    0.0000 C   0  0
    8.2654   -5.6077    0.0000 C   0  0
   10.2817   -1.0540    0.0000 C   0  0
   15.9465   -5.8483    0.0000 C   0  0
    1.6382    0.0286    0.0000 C   0  0
    1.0482    0.6128    0.0000 C   0  0
  2  1  1  0
  3  8  1  0
  4 11  1  0
  5 12  1  0
  6 10  1  0
  7  1  1  0
  8 13  1  0
  9  3  1  0
 10 14  1  0
 11 15  1  0
 12 17  1  0
 13  6  1  0
 14  4  1  0
 15  5  1  0
  7 16  1  1
 17  2  1  0
 18 36  2  0
 19  9  1  0
 20 19  1  0
 21 22  2  0
 22 20  1  0
 23 18  1  0
 24  2  2  0
 25 21  1  0
 26 25  2  0
 27  3  2  0
 28  6  2  0
 29  4  2  0
 30  5  2  0
 13 31  1  1
 32 16  2  0
 15 33  1  1
 14 34  1  1
 35 20  2  0
 36 60  1  0
 37 16  1  0
 38 18  1  0
 39  1  1  0
 40 26  1  0
 41 31  1  0
 42 47  1  0
  9 43  1  6
 44 41  2  0
 45 41  1  0
 46 44  1  0
 47 45  2  0
 48  7  1  0
 49 42  1  0
 50 43  1  0
 51 39  1  0
 17 52  1  6
 53 56  2  0
 54 34  1  0
 55 33  1  0
 56 25  1  0
 57 26  1  0
 58 53  1  0
 59 37  1  0
 60 62  1  0
 61 40  1  0
 62 52  1  0
 63 55  1  0
 64 54  1  0
 65 54  1  0
 66 55  1  0
 67 59  1  0
 68 57  2  0
 69 68  1  0
 51 48  1  0
 46 42  2  0
 40 58  2  0
 69 61  2  0
M  END