
  SciTegic02271515072D

 25 28  0  0  0  0            999 V2000
    2.9289  -21.4739    0.0000 C   0  0
    2.9278  -22.2935    0.0000 C   0  0
    3.6358  -22.7024    0.0000 N   0  0
    3.6340  -21.0651    0.0000 C   0  0
    4.3426  -21.4703    0.0000 C   0  0
    4.3429  -22.2935    0.0000 C   0  0
    5.1259  -22.5477    0.0000 S   0  0
    5.6096  -21.8815    0.0000 N   0  0
    5.1255  -21.2158    0.0000 C   0  0
    5.3777  -20.4385    0.0000 N   0  0
    4.8307  -19.8314    0.0000 C   0  0
    5.0830  -19.0541    0.0000 C   0  0
    4.0315  -20.0016    0.0000 O   0  0
    5.8846  -18.8835    0.0000 C   0  0
    6.1377  -18.1102    0.0000 C   0  0
    5.5936  -17.5001    0.0000 C   0  0
    4.7929  -17.6685    0.0000 C   0  0
    4.5364  -18.4471    0.0000 C   0  0
    2.2251  -21.0613    0.0000 C   0  0
    2.2339  -20.2444    0.0000 C   0  0
    1.5309  -19.8319    0.0000 C   0  0
    0.8207  -20.2351    0.0000 C   0  0
    0.8178  -21.0552    0.0000 C   0  0
    1.5214  -21.4641    0.0000 C   0  0
    0.1088  -21.4615    0.0000 N   0  0
  1  2  2  0
  2  3  1  0
  3  6  2  0
  5  4  2  0
  4  1  1  0
  5  6  1  0
  6  7  1  0
  7  8  1  0
  8  9  2  0
  9  5  1  0
  9 10  1  0
 10 11  1  0
 11 12  1  0
 11 13  2  0
 12 14  1  0
 12 18  1  0
 14 15  1  0
 15 16  1  0
 16 17  1  0
 17 18  1  0
  1 19  1  0
 19 20  2  0
 20 21  1  0
 21 22  2  0
 22 23  1  0
 23 24  2  0
 24 19  1  0
 23 25  1  0
M  END