
  SciTegic09291413392D

 32 35  0  0  0  0            999 V2000
   13.1576  -19.2659    0.0000 C   0  0
   13.1576  -20.0831    0.0000 C   0  0
   13.8629  -20.4876    0.0000 N   0  0
   14.5682  -20.0831    0.0000 C   0  0
   14.5682  -19.2659    0.0000 C   0  0  1  0  0  0
   13.8629  -18.8532    0.0000 C   0  0  2  0  0  0
   13.8633  -18.0368    0.0000 C   0  0
   14.5727  -17.6288    0.0000 C   0  0
   14.5730  -16.8124    0.0000 C   0  0
   13.8648  -16.4030    0.0000 C   0  0
   13.1547  -16.8160    0.0000 C   0  0
   13.1578  -17.6311    0.0000 C   0  0
   15.2809  -16.4041    0.0000 O   0  0
   15.2771  -18.8594    0.0000 C   0  0
   14.4370  -18.2712    0.0000 C   0  0
   13.8629  -21.3048    0.0000 C   0  0
   14.5706  -21.7133    0.0000 C   0  0
   15.2783  -21.3048    0.0000 C   0  0
   15.9860  -21.7133    0.0000 O   0  0
   16.6937  -21.3048    0.0000 C   0  0
   17.4014  -21.7133    0.0000 C   0  0  2  0  0  0
   16.6937  -20.4876    0.0000 O   0  0
   17.3983  -22.5270    0.0000 N   0  0
   18.1020  -22.9355    0.0000 C   0  0
   18.1059  -21.2992    0.0000 C   0  0
   18.8141  -21.7122    0.0000 C   0  0
   18.8094  -22.5287    0.0000 C   0  0
   19.5130  -22.9392    0.0000 C   0  0
   20.2218  -22.5344    0.0000 C   0  0
   20.2226  -21.7148    0.0000 C   0  0
   19.5183  -21.3079    0.0000 C   0  0
   20.9284  -22.9450    0.0000 O   0  0
  1  2  1  0
  1  6  1  0
  2  3  1  0
  3  4  1  0
  4  5  1  0
  5  6  1  0
  7  8  2  0
  8  9  1  0
  9 10  2  0
 10 11  1  0
 11 12  2  0
 12  7  1  0
  6  7  1  1
  9 13  1  0
  5 14  1  1
  6 15  1  0
  3 16  1  0
 16 17  1  0
 17 18  1  0
 18 19  1  0
 19 20  1  0
 21 20  1  1
 20 22  2  0
 21 23  1  0
 21 25  1  0
 23 24  1  0
 24 27  1  0
 26 25  1  0
 26 27  2  0
 27 28  1  0
 28 29  2  0
 29 30  1  0
 30 31  2  0
 31 26  1  0
 29 32  1  0
M  END