
          11280714432D 1   1.00000     0.00000     0

 29 32  0     0  0            999 V2000
    3.8125   -6.6042    0.0000 C   0  0  0  0  0  0           0  0  0
    3.8167   -7.4375    0.0000 N   0  0  0  0  0  0           0  0  0
    2.3792   -7.4417    0.0000 C   0  0  0  0  0  0           0  0  0
    3.1042   -7.8542    0.0000 C   0  0  0  0  0  0           0  0  0
    3.0917   -6.2000    0.0000 N   0  0  0  0  0  0           0  0  0
    2.3792   -6.6167    0.0000 C   0  0  0  0  0  0           0  0  0
    4.5250   -6.1917    0.0000 N   0  0  3  0  0  0           0  0  0
    1.6667   -7.8542    0.0000 C   0  0  0  0  0  0           0  0  0
    1.6667   -6.2042    0.0000 C   0  0  0  0  0  0           0  0  0
    0.9542   -7.4417    0.0000 C   0  0  0  0  0  0           0  0  0
    0.9542   -6.6167    0.0000 C   0  0  0  0  0  0           0  0  0
    6.6542   -4.1250    0.0000 C   0  0  0  0  0  0           0  0  0
    5.3542   -2.3042    0.0000 C   0  0  3  0  0  0           0  0  0
    5.1292   -1.5042    0.0000 C   0  0  0  0  0  0           0  0  0
    4.5417   -2.1000    0.0000 C   0  0  0  0  0  0           0  0  0
    5.9417   -3.7125    0.0000 N   0  0  0  0  0  0           0  0  0
    4.5167   -5.3667    0.0000 C   0  0  0  0  0  0           0  0  0
    5.2375   -6.6042    0.0000 C   0  0  0  0  0  0           0  0  0
    7.3750   -3.7042    0.0000 O   0  0  0  0  0  0           0  0  0
    3.1042   -8.6792    0.0000 N   0  0  0  0  0  0           0  0  0
    5.9417   -2.8875    0.0000 C   0  0  0  0  0  0           0  0  0
    6.6625   -4.9500    0.0000 C   0  0  0  0  0  0           0  0  0
    0.2417   -7.8542    0.0000 O   0  0  0  0  0  0           0  0  0
    0.2417   -6.2042    0.0000 O   0  0  0  0  0  0           0  0  0
    5.9500   -6.1875    0.0000 C   0  0  0  0  0  0           0  0  0
    5.2292   -4.9542    0.0000 C   0  0  0  0  0  0           0  0  0
    5.9500   -5.3625    0.0000 C   0  0  3  0  0  0           0  0  0
    0.2417   -8.6792    0.0000 C   0  0  0  0  0  0           0  0  0
    0.2417   -5.3792    0.0000 C   0  0  0  0  0  0           0  0  0
  2  1  1  0     0  0
  3  6  1  0     0  0
  4  2  2  0     0  0
  5  1  2  0     0  0
  6  5  1  0     0  0
  7  1  1  0     0  0
  8  3  2  0     0  0
  9  6  2  0     0  0
 10 11  2  0     0  0
 11  9  1  0     0  0
 12 22  1  0     0  0
 13 21  1  0     0  0
 14 13  1  0     0  0
 15 13  1  0     0  0
 16 12  1  0     0  0
 17  7  1  0     0  0
 18  7  1  0     0  0
 19 12  2  0     0  0
 20  4  1  0     0  0
 21 16  1  0     0  0
 22 27  1  0     0  0
 23 10  1  0     0  0
 24 11  1  0     0  0
 25 18  1  0     0  0
 26 17  1  0     0  0
 27 25  1  0     0  0
 28 23  1  0     0  0
 29 24  1  0     0  0
  4  3  1  0     0  0
 27 26  1  0     0  0
 10  8  1  0     0  0
 14 15  1  0     0  0
M  END