
  Mrv0541 05211314572D          

 21 22  0  0  0  0            999 V2000
    0.0495   -6.6330    0.0000 C   0  0  0  0  0  0  0  0  0  0  0  0
   -0.6649   -7.0455    0.0000 C   0  0  0  0  0  0  0  0  0  0  0  0
   -0.6649   -7.8705    0.0000 C   0  0  0  0  0  0  0  0  0  0  0  0
    0.0495   -8.2830    0.0000 C   0  0  0  0  0  0  0  0  0  0  0  0
    0.7640   -7.8705    0.0000 C   0  0  0  0  0  0  0  0  0  0  0  0
    0.7640   -7.0455    0.0000 C   0  0  0  0  0  0  0  0  0  0  0  0
    0.0495   -5.8080    0.0000 C   0  0  0  0  0  0  0  0  0  0  0  0
    0.7640   -5.3955    0.0000 C   0  0  0  0  0  0  0  0  0  0  0  0
    1.4785   -5.8080    0.0000 C   0  0  0  0  0  0  0  0  0  0  0  0
    1.4785   -6.6330    0.0000 O   0  0  0  0  0  0  0  0  0  0  0  0
    2.1929   -5.3955    0.0000 O   0  0  0  0  0  0  0  0  0  0  0  0
   -0.6649   -5.3955    0.0000 C   0  0  0  0  0  0  0  0  0  0  0  0
   -1.3794   -5.8080    0.0000 C   0  0  0  0  0  0  0  0  0  0  0  0
   -2.0939   -5.3955    0.0000 C   0  0  0  0  0  0  0  0  0  0  0  0
   -2.8084   -5.8080    0.0000 C   0  0  0  0  0  0  0  0  0  0  0  0
   -3.5228   -5.3955    0.0000 C   0  0  0  0  0  0  0  0  0  0  0  0
   -3.5228   -4.5705    0.0000 C   0  0  0  0  0  0  0  0  0  0  0  0
   -2.8084   -4.1580    0.0000 C   0  0  0  0  0  0  0  0  0  0  0  0
   -2.0939   -4.5705    0.0000 C   0  0  0  0  0  0  0  0  0  0  0  0
   -2.8084   -6.6330    0.0000 Cl  0  0  0  0  0  0  0  0  0  0  0  0
   -4.2373   -4.1580    0.0000 Cl  0  0  0  0  0  0  0  0  0  0  0  0
  2  3  1  0  0  0  0
  9 11  1  0  0  0  0
  5  6  2  0  0  0  0
  7 12  1  0  0  0  0
  6  1  1  0  0  0  0
 12 13  1  0  0  0  0
  1  2  2  0  0  0  0
 13 14  1  0  0  0  0
  1  7  1  0  0  0  0
 14 15  2  0  0  0  0
  3  4  2  0  0  0  0
 15 16  1  0  0  0  0
  7  8  2  0  0  0  0
 16 17  2  0  0  0  0
 17 18  1  0  0  0  0
  8  9  1  0  0  0  0
 18 19  2  0  0  0  0
 19 14  1  0  0  0  0
  4  5  1  0  0  0  0
 15 20  1  0  0  0  0
  9 10  2  0  0  0  0
 17 21  1  0  0  0  0
M  END