
          08180812492D 1   1.00000     0.00000     0

 28 31  0     0  0            999 V2000
   -0.1389   -8.8291    0.0000 C   0  0  0  0  0  0           0  0  0
   -0.1401   -9.6565    0.0000 C   0  0  0  0  0  0           0  0  0
    0.5747  -10.0694    0.0000 C   0  0  0  0  0  0           0  0  0
    1.2912   -9.6560    0.0000 C   0  0  0  0  0  0           0  0  0
    1.2883   -8.8255    0.0000 C   0  0  0  0  0  0           0  0  0
    0.5729   -8.4164    0.0000 C   0  0  0  0  0  0           0  0  0
   -0.8548  -10.0682    0.0000 C   0  0  0  0  0  0           0  0  0
   -1.5973   -9.7086    0.0000 N   0  0  3  0  0  0           0  0  0
   -0.8555  -10.8934    0.0000 O   0  0  0  0  0  0           0  0  0
    2.0012   -8.4103    0.0000 O   0  0  0  0  0  0           0  0  0
    1.9981   -7.5853    0.0000 C   0  0  0  0  0  0           0  0  0
    2.7128   -7.1749    0.0000 C   0  0  0  0  0  0           0  0  0
    2.7100   -6.3507    0.0000 C   0  0  0  0  0  0           0  0  0
    1.9935   -5.9401    0.0000 C   0  0  0  0  0  0           0  0  0
    1.2782   -6.3597    0.0000 C   0  0  0  0  0  0           0  0  0
    1.2845   -7.1826    0.0000 C   0  0  0  0  0  0           0  0  0
    2.0063  -10.0674    0.0000 C   0  0  0  0  0  0           0  0  0
    2.7201   -9.6538    0.0000 N   0  0  0  0  0  0           0  0  0
    3.4352  -10.0652    0.0000 C   0  0  0  0  0  0           0  0  0
   -2.2411  -10.2212    0.0000 C   0  0  0  0  0  0           0  0  0
   -3.0473  -10.0372    0.0000 C   0  0  0  0  0  0           0  0  0
   -1.5965   -8.8845    0.0000 C   0  0  0  0  0  0           0  0  0
   -3.4075   -9.2963    0.0000 C   0  0  0  0  0  0           0  0  0
   -2.2426   -8.3693    0.0000 C   0  0  0  0  0  0           0  0  0
   -3.0474   -8.5553    0.0000 N   0  0  3  0  0  0           0  0  0
   -3.5615   -7.9101    0.0000 C   0  0  3  0  0  0           0  0  0
   -3.6867   -7.0911    0.0000 C   0  0  0  0  0  0           0  0  0
   -4.3319   -7.6052    0.0000 C   0  0  0  0  0  0           0  0  0
 13 14  2  0     0  0
  2  7  1  0     0  0
 14 15  1  0     0  0
  3  4  2  0     0  0
 15 16  2  0     0  0
 16 11  1  0     0  0
  7  8  1  0     0  0
  4 17  1  0     0  0
 17 18  1  0     0  0
  7  9  2  0     0  0
 18 19  1  0     0  0
  4  5  1  0     0  0
  8 20  1  0     0  0
  5 10  1  0     0  0
 20 21  1  0     0  0
  2  3  1  0     0  0
  8 22  1  0     0  0
 10 11  1  0     0  0
 21 23  1  0     0  0
  5  6  2  0     0  0
 22 24  1  0     0  0
 11 12  2  0     0  0
 23 25  1  0     0  0
 24 25  1  0     0  0
  6  1  1  0     0  0
 25 26  1  0     0  0
 27 26  1  0     0  0
 28 27  1  0     0  0
 26 28  1  0     0  0
 12 13  1  0     0  0
  1  2  2  0     0  0
M  END