
          11280715122D 1   1.00000     0.00000     0

 33 36  0     0  0            999 V2000
    7.3542   -8.7000    0.0000 C   0  0  0  0  0  0           0  0  0
    4.3417   -4.3667    0.0000 C   0  0  0  0  0  0           0  0  0
    6.8250   -9.9250    0.0000 N   0  0  0  0  0  0           0  0  0
    4.3417   -3.5417    0.0000 C   0  0  0  0  0  0           0  0  0
    7.5375   -9.5042    0.0000 N   0  0  0  0  0  0           0  0  0
    6.2125   -9.3917    0.0000 N   0  0  0  0  0  0           0  0  0
    6.5417   -8.6167    0.0000 N   0  0  0  0  0  0           0  0  0
    5.0542   -4.7792    0.0000 N   0  0  3  0  0  0           0  0  0
    7.9042   -8.0792    0.0000 C   0  0  0  0  0  0           0  0  0
    5.0667   -3.1167    0.0000 C   0  0  0  0  0  0           0  0  0
    7.9042   -7.2542    0.0000 C   0  0  0  0  0  0           0  0  0
    3.6292   -4.7792    0.0000 N   0  0  0  0  0  0           0  0  0
    7.1917   -6.8417    0.0000 C   0  0  0  0  0  0           0  0  0
    5.0542   -5.6042    0.0000 C   0  0  0  0  0  0           0  0  0
    5.7667   -4.3667    0.0000 C   0  0  0  0  0  0           0  0  0
    5.0625   -2.2917    0.0000 O   0  0  0  0  0  0           0  0  0
    6.4792   -7.2542    0.0000 C   0  0  0  0  0  0           0  0  0
    7.1917   -6.0167    0.0000 C   0  0  0  0  0  0           0  0  0
    5.7667   -6.0167    0.0000 C   0  0  0  0  0  0           0  0  0
    5.7875   -3.5292    0.0000 O   0  0  0  0  0  0           0  0  0
    3.6292   -3.1292    0.0000 C   0  0  0  0  0  0           0  0  0
    5.7667   -6.8417    0.0000 C   0  0  0  0  0  0           0  0  0
    6.4750   -5.6042    0.0000 C   0  0  0  0  0  0           0  0  0
    6.4750   -4.7792    0.0000 C   0  0  0  0  0  0           0  0  0
    8.6167   -8.4917    0.0000 C   0  0  0  0  0  0           0  0  0
    8.6167   -6.8417    0.0000 C   0  0  0  0  0  0           0  0  0
    2.9167   -4.3667    0.0000 C   0  0  0  0  0  0           0  0  0
    7.1792   -4.3750    0.0000 C   0  0  3  0  0  0           0  0  0
    2.9167   -3.5417    0.0000 C   0  0  0  0  0  0           0  0  0
    7.8917   -4.7792    0.0000 C   0  0  0  0  0  0           0  0  0
    7.1875   -3.5542    0.0000 C   0  0  0  0  0  0           0  0  0
    9.3292   -8.0792    0.0000 C   0  0  0  0  0  0           0  0  0
    9.3292   -7.2542    0.0000 C   0  0  0  0  0  0           0  0  0
  2  8  1  0     0  0
  3  5  2  0     0  0
  4  2  1  0     0  0
  5  1  1  0     0  0
  6  7  1  0     0  0
  7  1  2  0     0  0
  8 14  1  0     0  0
  9  1  1  0     0  0
 10  4  1  0     0  0
 11  9  2  0     0  0
 12  2  2  0     0  0
 13 11  1  0     0  0
 14 19  1  0     0  0
 15  8  1  0     0  0
 16 10  2  0     0  0
 17 13  2  0     0  0
 18 13  1  0     0  0
 19 23  1  0     0  0
 20 10  1  0     0  0
 21  4  2  0     0  0
 22 17  1  0     0  0
 23 18  2  0     0  0
 24 15  1  0     0  0
 25  9  1  0     0  0
 26 11  1  0     0  0
 27 12  1  0     0  0
 28 24  1  0     0  0
 29 27  2  0     0  0
 30 28  1  0     0  0
 31 28  1  0     0  0
 32 25  2  0     0  0
 33 32  1  0     0  0
  6  3  1  0     0  0
 33 26  2  0     0  0
 19 22  2  0     0  0
 21 29  1  0     0  0
M  END