
  SciTegic06051315212D

 22 24  0  0  0  0            999 V2000
   24.7743  -19.1049    0.0000 N   0  0
   24.0608  -18.6963    0.0000 C   0  0
   25.4879  -18.6922    0.0000 C   0  0
   25.4879  -17.8709    0.0000 N   0  0
   24.7743  -17.4623    0.0000 C   0  0
   24.0608  -17.8709    0.0000 C   0  0
   23.3514  -17.4623    0.0000 C   0  0
   22.6378  -17.8709    0.0000 C   0  0
   22.6378  -18.6963    0.0000 C   0  0
   23.3514  -19.1049    0.0000 C   0  0
   26.1982  -19.0972    0.0000 C   0  0
   26.9060  -18.6866    0.0000 C   0  0
   27.6134  -19.0943    0.0000 C   0  0
   27.6142  -19.9123    0.0000 C   0  0
   26.9017  -20.3210    0.0000 C   0  0
   26.1972  -19.9111    0.0000 C   0  0
   28.3215  -20.3216    0.0000 Cl  0  0
   24.7743  -16.6451    0.0000 N   0  0
   25.4820  -16.2365    0.0000 C   0  0
   25.4820  -15.4193    0.0000 C   0  0
   26.1897  -15.0107    0.0000 N   0  0
   24.7743  -15.0107    0.0000 O   0  0
 10  2  1  0
  2  6  2  0
  2  1  1  0
  1  3  2  0
  3  4  1  0
  4  5  2  0
  5  6  1  0
  6  7  1  0
  7  8  2  0
  8  9  1  0
  9 10  2  0
 11 12  2  0
 12 13  1  0
 13 14  2  0
 14 15  1  0
 15 16  2  0
 16 11  1  0
  3 11  1  0
 14 17  1  0
  5 18  1  0
 18 19  1  0
 19 20  1  0
 20 21  1  0
 20 22  2  0
M  END