
  Mrv0541 05211314572D          

 38 39  0  0  0  0            999 V2000
   -1.9320   -1.4293    0.0000 C   0  0  0  0  0  0  0  0  0  0  0  0
   -1.9320   -2.2543    0.0000 C   0  0  0  0  0  0  0  0  0  0  0  0
   -1.2176   -2.6668    0.0000 C   0  0  0  0  0  0  0  0  0  0  0  0
   -0.5031   -2.2543    0.0000 C   0  0  0  0  0  0  0  0  0  0  0  0
   -0.5031   -1.4293    0.0000 C   0  0  0  0  0  0  0  0  0  0  0  0
   -1.2176   -1.0168    0.0000 C   0  0  0  0  0  0  0  0  0  0  0  0
   -2.6465   -2.6668    0.0000 I   0  0  0  0  0  0  0  0  0  0  0  0
    0.2114   -1.0168    0.0000 C   0  0  0  0  0  0  0  0  0  0  0  0
    0.9259   -1.4293    0.0000 C   0  0  0  0  0  0  0  0  0  0  0  0
    1.6403   -1.0168    0.0000 C   0  0  0  0  0  0  0  0  0  0  0  0
    2.3548   -1.4293    0.0000 C   0  0  0  0  0  0  0  0  0  0  0  0
    3.0693   -1.0168    0.0000 N   0  0  0  0  0  0  0  0  0  0  0  0
    2.3548   -2.2543    0.0000 O   0  0  0  0  0  0  0  0  0  0  0  0
    3.7837   -1.4293    0.0000 C   0  0  0  0  0  0  0  0  0  0  0  0
    4.4982   -1.0168    0.0000 C   0  0  0  0  0  0  0  0  0  0  0  0
    5.2127   -1.4293    0.0000 C   0  0  0  0  0  0  0  0  0  0  0  0
    5.9271   -1.0168    0.0000 C   0  0  0  0  0  0  0  0  0  0  0  0
    6.6416   -1.4293    0.0000 C   0  0  0  0  0  0  0  0  0  0  0  0
    7.3561   -1.0168    0.0000 N   0  0  0  0  0  0  0  0  0  0  0  0
    6.6416   -2.2543    0.0000 C   0  0  0  0  0  0  0  0  0  0  0  0
    5.9271   -2.6668    0.0000 O   0  0  0  0  0  0  0  0  0  0  0  0
    8.0706   -1.4293    0.0000 C   0  0  0  0  0  0  0  0  0  0  0  0
    8.0706   -2.2543    0.0000 O   0  0  0  0  0  0  0  0  0  0  0  0
    8.7850   -1.0168    0.0000 C   0  0  0  0  0  0  0  0  0  0  0  0
    9.4995   -1.4293    0.0000 C   0  0  0  0  0  0  0  0  0  0  0  0
   10.2140   -1.0168    0.0000 C   0  0  0  0  0  0  0  0  0  0  0  0
   10.9284   -1.4293    0.0000 N   0  0  0  0  0  0  0  0  0  0  0  0
   10.2140   -0.1918    0.0000 O   0  0  0  0  0  0  0  0  0  0  0  0
   11.6429   -1.0168    0.0000 C   0  0  0  0  0  0  0  0  0  0  0  0
   11.7292   -0.1963    0.0000 N   0  0  0  0  0  0  0  0  0  0  0  0
   12.5361   -0.0248    0.0000 N   0  0  0  0  0  0  0  0  0  0  0  0
   12.9486   -0.7393    0.0000 C   0  0  0  0  0  0  0  0  0  0  0  0
   12.3966   -1.3524    0.0000 S   0  0  0  0  0  0  0  0  0  0  0  0
   13.7691   -0.8255    0.0000 S   0  0  0  0  0  0  0  0  0  0  0  0
   14.5896   -0.9117    0.0000 N   0  0  0  0  0  0  0  0  0  0  0  0
   13.6829   -1.6460    0.0000 O   0  0  0  0  0  0  0  0  0  0  0  0
   13.8553   -0.0050    0.0000 O   0  0  0  0  0  0  0  0  0  0  0  0
    7.3561   -2.6668    0.0000 O   0  0  0  0  0  0  0  0  0  0  0  0
 18 19  1  0  0  0  0
  4  5  1  0  0  0  0
 18 20  1  0  0  0  0
  9 10  1  0  0  0  0
 20 21  1  0  0  0  0
 20 38  2  0  0  0  0
  2  3  1  0  0  0  0
 19 22  1  0  0  0  0
 10 11  1  0  0  0  0
 22 23  2  0  0  0  0
  5  6  2  0  0  0  0
 22 24  1  0  0  0  0
 11 12  1  0  0  0  0
  6  1  1  0  0  0  0
 24 25  1  0  0  0  0
 11 13  2  0  0  0  0
 25 26  1  0  0  0  0
  1  2  2  0  0  0  0
 26 27  1  0  0  0  0
 12 14  1  0  0  0  0
 26 28  2  0  0  0  0
  2  7  1  0  0  0  0
 27 29  1  0  0  0  0
 29 30  2  0  0  0  0
 14 15  1  0  0  0  0
  3  4  2  0  0  0  0
 15 16  1  0  0  0  0
  5  8  1  0  0  0  0
 30 31  1  0  0  0  0
 31 32  2  0  0  0  0
 32 33  1  0  0  0  0
 33 29  1  0  0  0  0
 16 17  1  0  0  0  0
 32 34  1  0  0  0  0
 34 35  1  0  0  0  0
 17 18  1  0  0  0  0
 34 36  2  0  0  0  0
  8  9  1  0  0  0  0
 34 37  2  0  0  0  0
M  END