
  SciTegic12131615082D

 16 17  0  0  0  0            999 V2000
    3.1484   -0.7186    0.0000 C   0  0
    4.1145    0.4340    0.0000 C   0  0
    5.5920    0.1754    0.0000 C   0  0
    6.1069   -1.2335    0.0000 C   0  0
    5.1442   -2.3838    0.0000 C   0  0
    3.6667   -2.1252    0.0000 C   0  0
    7.5847   -1.4952    0.0000 C   0  0
    7.9950   -2.6229    0.0000 O   0  0
    1.6852   -0.3846    0.0000 N   0  0
    1.3514    1.0778    0.0000 C   0  0
    0.0000    1.7286    0.0000 C   0  0
    0.7500   -1.5574    0.0000 C   0  0
   -1.3515    1.0777    0.0000 C   0  0
   -0.7500   -1.5574    0.0000 C   0  0
   -1.6852   -0.3847    0.0000 N   0  0
   -2.8551   -0.6517    0.0000 C   0  0
  1  2  2  0
  2  3  1  0
  3  4  2  0
  4  5  1  0
  5  6  2  0
  6  1  1  0
  4  7  1  0
  7  8  1  0
  1  9  1  0
  9 10  1  0
 10 11  1  0
  9 12  1  0
 11 13  1  0
 12 14  1  0
 13 15  1  0
 14 15  1  0
 15 16  1  0
M  END