
  SciTegic10301317112D

 33 34  0  0  0  0            999 V2000
   -0.9251   -0.6001    0.0000 S   0  0
    2.3669   -0.5793    0.0000 C   0  0
    7.4674   -3.2295    0.0000 C   0  0  1  0  0  0
    7.8799   -3.9421    0.0000 C   0  0
    6.6423   -3.2420    0.0000 N   0  0
   -0.1000   -0.5918    0.0000 C   0  0
    6.1548   -2.5752    0.0000 C   0  0
    2.7795   -1.2918    0.0000 N   0  0
   -0.9334   -1.4168    0.0000 O   0  0
   -0.9251    0.2250    0.0000 O   0  0
    4.0254   -2.0002    0.0000 C   0  0
    1.5418   -0.5876    0.0000 C   0  0
   -1.7502   -0.5918    0.0000 N   0  0
    4.8505   -1.9919    0.0000 N   0  0
    7.8757   -2.5169    0.0000 C   0  0
    2.7753    0.1333    0.0000 O   0  0
    7.4757   -4.6629    0.0000 O   0  0
    6.4923   -1.8169    0.0000 O   0  0
    3.6170   -2.7170    0.0000 O   0  0
    0.3000    0.1208    0.0000 C   0  0
    0.3125   -1.3043    0.0000 C   0  0
    1.1293   -1.3043    0.0000 C   0  0
    1.1168    0.1250    0.0000 C   0  0
    3.6045   -1.2876    0.0000 C   0  0
    5.3380   -2.6628    0.0000 C   0  0
    8.7008   -2.5127    0.0000 C   0  0
    8.7050   -3.9421    0.0000 O   0  0
   10.3427   -2.5044    0.0000 C   0  0
   11.1678   -2.4919    0.0000 F   0  0
    9.1009   -1.7919    0.0000 C   0  0
    9.1134   -3.2253    0.0000 C   0  0
    9.9384   -3.2170    0.0000 C   0  0
    9.9259   -1.7877    0.0000 C   0  0
  2 12  1  0
  3  5  1  0
  4  3  1  0
  5  7  1  0
  6  1  1  0
  7 25  1  0
  8  2  1  0
  9  1  2  0
 10  1  2  0
 11 24  1  0
 12 22  2  0
 13  1  1  0
 14 11  1  0
  3 15  1  1
 16  2  2  0
 17  4  2  0
 18  7  2  0
 19 11  2  0
 20  6  1  0
 21  6  2  0
 22 21  1  0
 23 20  2  0
 24  8  1  0
 25 14  1  0
 26 15  1  0
 27  4  1  0
 28 32  2  0
 29 28  1  0
 30 26  1  0
 31 26  2  0
 32 31  1  0
 33 30  2  0
 12 23  1  0
 28 33  1  0
M  END