
  SciTegic01161211222D

 35 37  0  0  0  0            999 V2000
   -2.6950  -19.0396    0.0000 C   0  0
   -2.6961  -18.2143    0.0000 N   0  0
   -1.2635  -19.0358    0.0000 C   0  0
   -0.5478  -19.4496    0.0000 C   0  0
    0.1669  -19.0339    0.0000 C   0  0
    0.8784  -19.4477    0.0000 C   0  0  1  0  0  0
    1.5931  -19.0321    0.0000 C   0  0
    2.3088  -19.4458    0.0000 N   0  0
    1.5920  -18.2069    0.0000 O   0  0
    2.3042  -20.2690    0.0000 C   0  0
    3.0158  -20.6785    0.0000 C   0  0
    3.7328  -20.2705    0.0000 C   0  0  2  0  0  0
    3.7337  -19.4444    0.0000 C   0  0
    3.0175  -19.0262    0.0000 C   0  0  2  0  0  0
    3.0151  -18.2010    0.0000 C   0  0
    3.7290  -17.7884    0.0000 O   0  0
    4.4470  -20.6828    0.0000 C   0  0
    0.1693  -20.6887    0.0000 S   0  0
    0.1704  -21.5138    0.0000 C   0  0
   -0.2529  -19.9700    0.0000 O   0  0
   -0.6593  -20.6832    0.0000 O   0  0
   -0.5456  -21.9267    0.0000 C   0  0
   -0.5449  -22.7511    0.0000 C   0  0
    0.1714  -23.1614    0.0000 C   0  0
    0.8800  -21.9225    0.0000 C   0  0
    0.8831  -22.7439    0.0000 C   0  0
    1.5928  -23.1476    0.0000 C   0  0
    2.3037  -22.7385    0.0000 C   0  0
    2.3005  -21.9170    0.0000 C   0  0
    3.0199  -23.1472    0.0000 C   0  0
   -1.9782  -19.4479    0.0000 N   0  0
   -3.4075  -19.4505    0.0000 N   0  0
    2.3008  -17.7879    0.0000 O   0  0
    0.8817  -20.2727    0.0000 N   0  0
    1.5886  -21.5001    0.0000 N   0  0
  3  4  1  0
  4  5  1  0
  6  5  1  1
  6  7  1  0
  7  8  1  0
  7  9  2  0
  8 10  1  0
  8 14  1  0
 10 11  1  0
 11 12  1  0
 12 13  1  0
 13 14  1  0
 14 15  1  1
 15 16  2  0
 12 17  1  6
 18 19  1  0
 18 20  2  0
 18 21  2  0
 19 22  2  0
 22 23  1  0
 23 24  2  0
 24 26  1  0
 25 19  1  0
 25 26  2  0
 26 27  1  0
 27 28  1  0
 28 29  1  0
 28 30  1  0
  1  2  2  0
 31  1  1  0
 31  3  1  0
 15 33  1  0
  6 34  1  0
 34 18  1  0
  1 32  1  0
 25 35  1  0
 29 35  1  0
M  END