
  SciTegic02271514512D

 29 32  0  0  0  0            999 V2000
    5.5793  -10.7116    0.0000 N   0  0
    3.7582  -11.8784    0.0000 C   0  0
    4.5530  -11.6870    0.0000 N   0  0
    4.7846  -10.9030    0.0000 C   0  0
    4.2215  -10.3104    0.0000 C   0  0
    3.4267  -10.5019    0.0000 C   0  0
    3.1951  -11.2858    0.0000 N   0  0
    4.4531   -9.5265    0.0000 F   0  0
    2.7782  -13.7530    0.0000 C   0  0
    2.7562  -12.9358    0.0000 C   0  0
    2.0375  -12.5463    0.0000 C   0  0
    1.3408  -12.9739    0.0000 C   0  0
    1.3628  -13.7911    0.0000 C   0  0
    2.0815  -14.1806    0.0000 N   0  0
    3.5622  -13.9846    0.0000 N   0  0
    3.5266  -12.6624    0.0000 C   0  0
    4.0247  -13.3106    0.0000 C   0  0
    0.6221  -12.5843    0.0000 Cl  0  0
    6.1423  -11.3040    0.0000 C   0  0  1  0  0  0
    5.9087  -12.0839    0.0000 C   0  0
    6.4678  -12.6751    0.0000 C   0  0
    7.2636  -12.4877    0.0000 C   0  0
    7.4973  -11.7037    0.0000 N   0  0
    6.9352  -11.1069    0.0000 C   0  0
    8.2924  -11.5151    0.0000 C   0  0
    8.8533  -12.1093    0.0000 C   0  0  2  0  0  0
    9.6484  -11.9207    0.0000 C   0  0
   10.2093  -12.5150    0.0000 O   0  0
    8.6191  -12.8922    0.0000 O   0  0
  2  3  1  0
  3  4  2  0
  4  5  1  0
  5  6  2  0
  6  7  1  0
  2  7  2  0
  5  8  1  0
  9 10  1  0
 10 11  2  0
 11 12  1  0
 12 13  2  0
 13 14  1  0
  9 14  2  0
 16 17  2  0
 15 17  1  0
  9 15  1  0
 10 16  1  0
 12 18  1  0
  2 16  1  0
  1  4  1  0
 19  1  1  6
 19 20  1  0
 19 24  1  0
 20 21  1  0
 21 22  1  0
 22 23  1  0
 23 24  1  0
 23 25  1  0
 25 26  1  0
 26 27  1  0
 27 28  1  0
 26 29  1  6
M  END