
          08180812472D 1   1.00000     0.00000     0

 31 35  0     1  0            999 V2000
    0.7545   -7.4031    0.0000 C   0  0  0  0  0  0           0  0  0
    0.7545   -8.2284    0.0000 C   0  0  0  0  0  0           0  0  0
    1.4668   -8.6369    0.0000 N   0  0  3  0  0  0           0  0  0
    2.1792   -8.2284    0.0000 C   0  0  2  0  0  0           0  0  0
    2.1792   -7.4031    0.0000 C   0  0  2  0  0  0           0  0  0
    1.4668   -6.9862    0.0000 C   0  0  0  0  0  0           0  0  0
    1.4668   -9.4623    0.0000 C   0  0  0  0  0  0           0  0  0
    0.7520   -9.8750    0.0000 C   0  0  0  0  0  0           0  0  0
    2.1817   -9.8750    0.0000 O   0  0  0  0  0  0           0  0  0
    0.0372   -9.4623    0.0000 C   0  0  0  0  0  0           0  0  0
   -0.0531   -8.6463    0.0000 C   0  0  0  0  0  0           0  0  0
   -0.8604   -8.4747    0.0000 S   0  0  0  0  0  0           0  0  0
   -0.7209   -9.8027    0.0000 C   0  0  0  0  0  0           0  0  0
   -1.2697   -9.1921    0.0000 C   0  0  0  0  0  0           0  0  0
   -2.0711   -9.3627    0.0000 C   0  0  0  0  0  0           0  0  0
   -2.3245  -10.1436    0.0000 C   0  0  0  0  0  0           0  0  0
   -1.7706  -10.7540    0.0000 C   0  0  0  0  0  0           0  0  0
   -0.9713  -10.5802    0.0000 C   0  0  0  0  0  0           0  0  0
   -2.0223  -11.5400    0.0000 Cl  0  0  0  0  0  0           0  0  0
    2.8914   -6.9946    0.0000 C   0  0  0  0  0  0           0  0  0
    3.6054   -7.4111    0.0000 C   0  0  0  0  0  0           0  0  0
    4.3207   -7.0012    0.0000 C   0  0  0  0  0  0           0  0  0
    4.3236   -6.1750    0.0000 C   0  0  0  0  0  0           0  0  0
    3.6051   -5.7604    0.0000 C   0  0  0  0  0  0           0  0  0
    2.8925   -6.1727    0.0000 C   0  0  0  0  0  0           0  0  0
    2.8933   -8.6421    0.0000 C   0  0  0  0  0  0           0  0  0
    3.7182   -8.6411    0.0000 N   0  0  3  0  0  0           0  0  0
    4.2077   -9.3053    0.0000 C   0  0  0  0  0  0           0  0  0
    4.9920   -9.0493    0.0000 C   0  0  0  0  0  0           0  0  0
    4.9909   -8.2242    0.0000 C   0  0  0  0  0  0           0  0  0
    4.2060   -7.9705    0.0000 C   0  0  0  0  0  0           0  0  0
 14 15  1  0     0  0
  1  2  1  0     0  0
 15 16  2  0     0  0
  7  8  1  0     0  0
 16 17  1  0     0  0
  1  6  1  0     0  0
 17 18  2  0     0  0
 18 13  1  0     0  0
  7  9  2  0     0  0
 17 19  1  0     0  0
  2  3  1  0     0  0
  8 10  1  0     0  0
 20 21  2  0     0  0
 10 11  2  0     0  0
 21 22  1  0     0  0
  3  4  1  0     0  0
 22 23  2  0     0  0
  4  5  1  0     0  0
 23 24  1  0     0  0
 11 12  1  0     0  0
 24 25  2  0     0  0
 25 20  1  0     0  0
  5 20  1  6     0  0
 12 14  1  0     0  0
  4 26  1  6     0  0
 13 10  1  0     0  0
 26 27  1  0     0  0
 27 28  1  0     0  0
  5  6  1  0     0  0
 13 14  2  0     0  0
  3  7  1  0     0  0
 28 29  1  0     0  0
 29 30  1  0     0  0
 30 31  1  0     0  0
 31 27  1  0     0  0
M  END