
  SciTegic03161210572D

 33 33  0  0  0  0            999 V2000
   23.3833   -5.2958    0.0000 F   0  0
   23.8000   -6.0125    0.0000 C   0  0
   24.2123   -5.2933    0.0000 F   0  0
   23.4917   -7.1375    0.0000 F   0  0
   23.0833   -6.4250    0.0000 C   0  0
   22.6705   -7.1349    0.0000 F   0  0
   21.9542   -5.2958    0.0000 F   0  0
   22.3708   -6.0125    0.0000 C   0  0
   22.7832   -5.2933    0.0000 F   0  0
   22.0625   -7.1375    0.0000 F   0  0
   21.6542   -6.4250    0.0000 C   0  0
   21.2413   -7.1349    0.0000 F   0  0
   20.5250   -5.2958    0.0000 F   0  0
   20.9417   -6.0125    0.0000 C   0  0
   21.3540   -5.2933    0.0000 F   0  0
   20.6333   -7.1375    0.0000 F   0  0
   20.2250   -6.4250    0.0000 C   0  0
   19.8121   -7.1349    0.0000 F   0  0
   18.8000   -6.4292    0.0000 N   0  0
   19.5145   -6.0167    0.0000 C   0  0
   19.5145   -5.1917    0.0000 O   0  0
   24.5158   -6.4292    0.0000 C   0  0
   25.2302   -6.0167    0.0000 N   0  0
   24.5158   -7.2542    0.0000 O   0  0
   25.9447   -6.4292    0.0000 O   0  0
   18.0855   -6.0167    0.0000 C   0  0
   18.0905   -5.1906    0.0000 C   0  0
   17.3769   -4.7782    0.0000 C   0  0
   16.6614   -5.1907    0.0000 C   0  0
   16.6641   -6.0200    0.0000 C   0  0
   17.3783   -6.4287    0.0000 C   0  0
   17.3773   -3.9532    0.0000 C   0  0
   18.0919   -3.5410    0.0000 C   0  0
 19 20  1  0
 20 17  1  0
  8  7  1  0
 20 21  2  0
 17 14  1  0
 14 11  1  0
 11  8  1  0
  8  5  1  0
  5  2  1  0
 14 13  1  0
  2 22  1  0
 15 14  1  0
 22 23  1  0
  9  8  1  0
 22 24  2  0
  5  4  1  0
 23 25  1  0
  6  5  1  0
 19 26  1  0
 17 16  1  0
 26 27  2  0
 18 17  1  0
 27 28  1  0
 28 29  2  0
 11 10  1  0
 29 30  1  0
 12 11  1  0
 30 31  2  0
 31 26  1  0
  2  1  1  0
 28 32  1  0
  3  2  1  0
 32 33  1  0
M  END