
  SciTegic05161214222D

 53 57  0  0  0  0            999 V2000
   25.6777  -28.1291    0.0000 N   0  3
   25.6751  -28.9550    0.0000 C   0  0
   26.3852  -29.3679    0.0000 C   0  0
   27.1024  -28.9594    0.0000 N   0  0
   27.1049  -28.1335    0.0000 C   0  0
   26.3903  -27.7160    0.0000 C   0  0
   22.1125  -27.7250    0.0000 C   0  0
   22.1125  -28.5500    0.0000 C   0  0
   22.8245  -28.9583    0.0000 O   0  0
   23.5365  -28.5500    0.0000 C   0  0
   23.5365  -27.7250    0.0000 C   0  0
   22.8245  -27.3083    0.0000 C   0  0
   21.3948  -27.3198    0.0000 S   0  0
   20.9865  -28.0366    0.0000 O   0  0
   21.8115  -28.0318    0.0000 O   0  0
   18.5277  -22.3833    0.0000 C   0  0
   18.5266  -23.2107    0.0000 C   0  0
   19.2414  -23.6235    0.0000 C   0  0
   19.2396  -21.9705    0.0000 C   0  0
   19.9550  -22.3797    0.0000 C   0  0
   19.9557  -23.2065    0.0000 C   0  0
   20.6710  -23.6175    0.0000 N   0  0
   21.3861  -23.2027    0.0000 C   0  0
   21.3813  -22.3727    0.0000 C   0  0
   20.6654  -21.9655    0.0000 C   0  0
   22.1021  -23.6124    0.0000 C   0  0
   20.6610  -21.1405    0.0000 C   0  0
   19.2433  -24.4485    0.0000 O   0  0
   19.9587  -24.8594    0.0000 C   0  0
   19.9606  -25.6844    0.0000 C   0  0
   19.2445  -26.0942    0.0000 C   0  0
   19.2461  -26.9184    0.0000 C   0  0
   19.9621  -27.3301    0.0000 C   0  0
   20.6779  -26.9115    0.0000 C   0  0
   20.6729  -26.0886    0.0000 C   0  0
   18.5305  -25.6810    0.0000 Cl  0  0
   21.3845  -25.6713    0.0000 Cl  0  0
   22.1069  -26.9031    0.0000 N   0  0
   23.5358  -26.8948    0.0000 C   0  0
   24.2515  -27.3051    0.0000 N   0  0
   23.5332  -26.0698    0.0000 O   0  0
   24.2504  -28.1300    0.0000 C   0  0
   24.9621  -28.5403    0.0000 C   0  0
   25.6771  -27.3031    0.0000 C   0  0
   24.9609  -26.8883    0.0000 C   0  0
   27.8150  -29.3751    0.0000 C   0  0
   25.9722  -26.2426    0.0000 F   0  0
   26.6866  -25.8301    0.0000 C   0  0
   27.4011  -26.2426    0.0000 F   0  0
   26.6805  -26.6509    0.0000 F   0  0
   26.6897  -25.0051    0.0000 C   0  0
   27.4057  -24.5953    0.0000 O   0  5
   25.9768  -24.5899    0.0000 O   0  0
 10 11  1  0
 23 24  1  0
 11 12  1  0
 24 25  2  0
 25 20  1  0
 14 13  2  0
 23 26  1  0
 13 15  2  0
 25 27  1  0
  5  6  1  0
 18 28  1  0
  7  8  1  0
 28 29  1  0
 29 30  1  0
  1  2  1  0
 30 31  2  0
  1  6  1  0
 31 32  1  0
 16 17  2  0
 32 33  2  0
  2  3  1  0
 33 34  1  0
 17 18  1  0
 34 35  2  0
 35 30  1  0
 18 21  2  0
 31 36  1  0
  3  4  1  0
 35 37  1  0
 34 13  1  0
 20 19  2  0
 13 38  1  0
 38 12  1  0
 19 16  1  0
 12 39  1  0
  4  5  1  0
 39 40  1  0
  7 12  1  0
 39 41  2  0
 40 42  1  0
 20 21  1  0
  8  9  1  0
 21 22  1  0
  9 10  1  0
 40 45  1  0
 42 43  1  0
 43  1  1  0
  1 44  1  0
 44 45  1  0
 22 23  2  0
  4 46  1  0
 47 48  1  0
 48 50  1  0
 48 51  1  0
 48 49  1  0
 51 52  1  0
 51 53  2  0
M  CHG  2   1   1  52  -1
M  END