
          11280715512D 1   1.00000     0.00000     0

 38 41  0     0  0            999 V2000
    4.2149    0.4417    0.0000 C   0  0  0  0  0  0           0  0  0
    4.2138   -0.3857    0.0000 C   0  0  0  0  0  0           0  0  0
    4.9286   -0.7984    0.0000 C   0  0  0  0  0  0           0  0  0
    4.9268    0.8544    0.0000 C   0  0  0  0  0  0           0  0  0
    5.6469   -0.3828    0.0000 C   0  0  0  0  0  0           0  0  0
    5.6421    0.4453    0.0000 C   0  0  0  0  0  0           0  0  0
    6.2892    0.9711    0.0000 N   0  0  3  0  0  0           0  0  0
    6.3031   -0.8971    0.0000 C   0  0  0  0  0  0           0  0  0
    7.1012    0.7969    0.0000 C   0  0  0  0  0  0           0  0  0
    7.1137   -0.7042    0.0000 N   0  0  0  0  0  0           0  0  0
    7.4660    0.0506    0.0000 N   0  0  3  0  0  0           0  0  0
    7.6095    1.4467    0.0000 O   0  0  0  0  0  0           0  0  0
    6.1267   -1.7031    0.0000 C   0  0  3  0  0  0           0  0  0
    8.2910    0.0579    0.0000 C   0  0  0  0  0  0           0  0  0
    8.7098   -0.6528    0.0000 C   0  0  0  0  0  0           0  0  0
    9.5347   -0.6455    0.0000 N   0  0  0  0  0  0           0  0  0
    8.3037   -1.3709    0.0000 O   0  0  0  0  0  0           0  0  0
    6.0967    1.7734    0.0000 C   0  0  0  0  0  0           0  0  0
    6.6951    2.3412    0.0000 C   0  0  0  0  0  0           0  0  0
    6.5026    3.1433    0.0000 C   0  0  3  0  0  0           0  0  0
    7.4860    2.1068    0.0000 O   0  0  0  0  0  0           0  0  0
    6.2829    3.9455    0.0000 C   0  0  0  0  0  0           0  0  0
    7.3016    3.3486    0.0000 C   0  0  0  0  0  0           0  0  0
    5.7053    2.9313    0.0000 C   0  0  0  0  0  0           0  0  0
    9.9536   -1.3562    0.0000 C   0  0  0  0  0  0           0  0  0
    9.5455   -2.0720    0.0000 C   0  0  0  0  0  0           0  0  0
    9.9637   -2.7822    0.0000 C   0  0  0  0  0  0           0  0  0
   10.7895   -2.7753    0.0000 C   0  0  0  0  0  0           0  0  0
   11.1954   -2.0522    0.0000 C   0  0  0  0  0  0           0  0  0
   10.7748   -1.3449    0.0000 C   0  0  0  0  0  0           0  0  0
    5.3431   -1.9527    0.0000 C   0  0  0  0  0  0           0  0  0
    5.1654   -2.7546    0.0000 C   0  0  0  0  0  0           0  0  0
    5.7724   -3.3138    0.0000 C   0  0  0  0  0  0           0  0  0
    6.5601   -3.0652    0.0000 C   0  0  0  0  0  0           0  0  0
    6.7407   -2.2576    0.0000 C   0  0  0  0  0  0           0  0  0
   12.0202   -2.0420    0.0000 C   0  0  0  0  0  0           0  0  0
   12.4238   -1.3224    0.0000 O   0  0  0  0  0  0           0  0  0
   12.4416   -2.7511    0.0000 O   0  0  0  0  0  0           0  0  0
  7  9  1  0     0  0
 18 19  1  0     0  0
  4  1  1  0     0  0
 19 20  1  0     0  0
  8 10  2  0     0  0
 19 21  2  0     0  0
 20 22  1  0     0  0
  9 11  1  0     0  0
 20 23  1  0     0  0
 10 11  1  0     0  0
 20 24  1  0     0  0
  2  3  1  0     0  0
 16 25  1  0     0  0
  9 12  2  0     0  0
 25 26  2  0     0  0
  5  6  1  0     0  0
 26 27  1  0     0  0
  8 13  1  0     0  0
 27 28  2  0     0  0
  3  5  2  0     0  0
 28 29  1  0     0  0
 11 14  1  0     0  0
 29 30  2  0     0  0
 30 25  1  0     0  0
 13 31  1  0     0  0
  6  7  1  0     0  0
 14 15  1  0     0  0
  1  2  2  0     0  0
 15 16  1  0     0  0
  5  8  1  0     0  0
 13 35  1  0     0  0
 31 32  1  0     0  0
 32 33  1  0     0  0
 33 34  1  0     0  0
 34 35  1  0     0  0
 15 17  2  0     0  0
 29 36  1  0     0  0
  6  4  2  0     0  0
 36 37  1  0     0  0
  7 18  1  0     0  0
 36 38  2  0     0  0
M  END