
          11280714492D 1   1.00000     0.00000     0

 23 26  0     0  0            999 V2000
    5.7792   -4.5167    0.0000 C   0  0  3  0  0  0           0  0  0
    5.7750   -6.1542    0.0000 O   0  0  0  0  0  0           0  0  0
    5.7792   -3.6917    0.0000 C   0  0  0  0  0  0           0  0  0
    6.4917   -4.9167    0.0000 C   0  0  3  0  0  0           0  0  0
    5.0667   -4.9167    0.0000 C   0  0  0  0  0  0           0  0  0
    6.4917   -5.7417    0.0000 C   0  0  3  0  0  0           0  0  0
    5.0625   -5.7417    0.0000 C   0  0  0  0  0  0           0  0  0
    7.2042   -2.0417    0.0000 N   0  0  3  0  0  0           0  0  0
    6.4917   -3.2792    0.0000 C   0  0  0  0  0  0           0  0  0
    6.4917   -2.4542    0.0000 C   0  0  3  0  0  0           0  0  0
    7.2000   -4.5042    0.0000 C   0  0  0  0  0  0           0  0  0
    7.2042   -6.1542    0.0000 C   0  0  0  0  0  0           0  0  0
    7.9125   -4.9042    0.0000 C   0  0  0  0  0  0           0  0  0
    7.9167   -5.7292    0.0000 C   0  0  0  0  0  0           0  0  0
    7.9250   -2.4542    0.0000 C   0  0  0  0  0  0           0  0  0
    7.2042   -1.2167    0.0000 C   0  0  0  0  0  0           0  0  0
    4.3542   -4.5167    0.0000 C   0  0  0  0  0  0           0  0  0
    4.3542   -6.1542    0.0000 C   0  0  0  0  0  0           0  0  0
    5.7875   -2.0417    0.0000 C   0  0  0  0  0  0           0  0  0
    6.4917   -0.8042    0.0000 C   0  0  0  0  0  0           0  0  0
    3.6500   -4.9167    0.0000 C   0  0  0  0  0  0           0  0  0
    3.6417   -5.7417    0.0000 C   0  0  0  0  0  0           0  0  0
    5.7875   -1.2167    0.0000 C   0  0  0  0  0  0           0  0  0
  2  7  1  0     0  0
  3  1  1  0     0  0
  4  1  1  0     0  0
  5  1  1  0     0  0
  6  4  1  0     0  0
  7  5  1  0     0  0
  8 10  1  0     0  0
  9  3  2  0     0  0
 10  9  1  0     0  0
 11  4  1  0     0  0
 12  6  1  0     0  0
 13 11  2  0     0  0
 14 13  1  0     0  0
 15  8  1  0     0  0
 16  8  1  0     0  0
 17  5  2  0     0  0
 18  7  2  0     0  0
 19 10  1  0     0  0
 20 23  1  0     0  0
 21 17  1  0     0  0
 22 21  2  0     0  0
 23 19  1  0     0  0
  6  2  1  0     0  0
 22 18  1  0     0  0
 12 14  2  0     0  0
 16 20  1  0     0  0
M  END