
          11280715362D 1   1.00000     0.00000     0

 26 28  0     0  0            999 V2000
    2.3167   -1.5042    0.0000 C   0  0  0  0  0  0           0  0  0
    1.8042   -1.2042    0.0000 C   0  0  3  0  0  0           0  0  0
    2.3167   -2.1042    0.0000 C   0  0  0  0  0  0           0  0  0
    1.8042   -2.4042    0.0000 O   0  0  0  0  0  0           0  0  0
    1.2792   -2.1167    0.0000 C   0  0  3  0  0  0           0  0  0
    1.2792   -1.5042    0.0000 C   0  0  3  0  0  0           0  0  0
    2.8375   -1.2042    0.0000 C   0  0  0  0  0  0           0  0  0
    0.7542   -1.2042    0.0000 C   0  0  0  0  0  0           0  0  0
    1.8042   -0.6042    0.0000 C   0  0  0  0  0  0           0  0  0
    0.7542   -0.6042    0.0000 C   0  0  0  0  0  0           0  0  0
    1.2875   -0.3042    0.0000 C   0  0  0  0  0  0           0  0  0
    2.8375   -2.4042    0.0000 C   0  0  0  0  0  0           0  0  0
    3.3625   -1.5042    0.0000 C   0  0  0  0  0  0           0  0  0
    3.3625   -2.1042    0.0000 C   0  0  0  0  0  0           0  0  0
    4.4042   -2.0917    0.0000 C   0  0  0  0  0  0           0  0  0
    4.9167   -2.3792    0.0000 C   0  0  0  0  0  0           0  0  0
    2.8292   -0.6042    0.0000 O   0  0  0  0  0  0           0  0  0
    1.0792   -2.6792    0.0000 C   0  0  0  0  0  0           0  0  0
    0.7125   -1.9167    0.0000 C   0  0  0  0  0  0           0  0  0
    3.8917   -2.3917    0.0000 C   0  0  0  0  0  0           0  0  0
    1.3042    0.2958    0.0000 C   0  0  0  0  0  0           0  0  0
    5.4292   -2.0792    0.0000 C   0  0  0  0  0  0           0  0  0
    5.9542   -2.3667    0.0000 C   0  0  0  0  0  0           0  0  0
    6.9875   -2.3542    0.0000 C   0  0  0  0  0  0           0  0  0
    6.4667   -2.0667    0.0000 C   0  0  0  0  0  0           0  0  0
    7.5000   -2.0542    0.0000 C   0  0  0  0  0  0           0  0  0
  2  1  1  0     0  0
  3  1  1  0     0  0
  4  3  1  0     0  0
  5  4  1  0     0  0
  6  2  1  0     0  0
  7  1  2  0     0  0
  8  6  1  0     0  0
  9  2  1  0     0  0
 10 11  2  0     0  0
 11  9  1  0     0  0
 12  3  2  0     0  0
 13  7  1  0     0  0
 14 13  2  0     0  0
 15 20  1  0     0  0
 16 15  2  0     0  0
 17  7  1  0     0  0
 18  5  1  0     0  0
 19  5  1  0     0  0
 20 14  1  0     0  0
 21 11  1  0     0  0
 22 16  1  0     0  0
 23 22  1  0     0  0
 24 25  1  0     0  0
 25 23  1  0     0  0
 26 24  1  0     0  0
  5  6  1  0     0  0
 14 12  1  0     0  0
  8 10  1  0     0  0
M  END