
          05080814032D 1   1.00000     0.00000     0

 30 32  0     0  0            999 V2000
   -2.2915  -24.3413    0.0000 N   0  0  0  0  0  0           0  0  0
   -2.2915  -25.1707    0.0000 S   0  0  3  0  0  0           0  0  0
   -1.5771  -25.5832    0.0000 N   0  0  3  0  0  0           0  0  0
   -0.8581  -25.1707    0.0000 C   0  0  0  0  0  0           0  0  0
   -0.8581  -24.3413    0.0000 C   0  0  0  0  0  0           0  0  0
   -1.5771  -23.9242    0.0000 C   0  0  0  0  0  0           0  0  0
   -3.0890  -24.9554    0.0000 O   0  0  0  0  0  0           0  0  0
   -2.2962  -25.9957    0.0000 O   0  0  0  0  0  0           0  0  0
   -1.5783  -23.0992    0.0000 C   0  0  0  0  0  0           0  0  0
   -0.8645  -22.6857    0.0000 N   0  0  0  0  0  0           0  0  0
   -2.2933  -22.6877    0.0000 O   0  0  0  0  0  0           0  0  0
   -1.5803  -26.4047    0.0000 C   0  0  0  0  0  0           0  0  0
   -0.1442  -25.5842    0.0000 C   0  0  0  0  0  0           0  0  0
   -0.1494  -23.0972    0.0000 N   0  0  3  0  0  0           0  0  0
   -0.1475  -23.9205    0.0000 C   0  0  0  0  0  0           0  0  0
    0.5634  -24.3319    0.0000 C   0  0  0  0  0  0           0  0  0
    1.2797  -23.9220    0.0000 C   0  0  0  0  0  0           0  0  0
    1.2806  -23.0961    0.0000 C   0  0  0  0  0  0           0  0  0
    0.5650  -22.6801    0.0000 C   0  0  0  0  0  0           0  0  0
   -0.1504  -26.4094    0.0000 C   0  0  0  0  0  0           0  0  0
    0.5626  -26.8228    0.0000 C   0  0  0  0  0  0           0  0  0
    1.2787  -26.4113    0.0000 C   0  0  0  0  0  0           0  0  0
    1.2772  -25.5820    0.0000 C   0  0  0  0  0  0           0  0  0
    0.5635  -25.1723    0.0000 C   0  0  0  0  0  0           0  0  0
    1.9931  -26.8238    0.0000 Cl  0  0  0  0  0  0           0  0  0
   -0.8674  -26.8199    0.0000 C   0  0  0  0  0  0           0  0  0
   -0.8706  -27.6449    0.0000 C   0  0  0  0  0  0           0  0  0
   -0.1577  -28.0601    0.0000 C   0  0  0  0  0  0           0  0  0
   -0.1608  -28.8851    0.0000 C   0  0  0  0  0  0           0  0  0
    0.5520  -29.3002    0.0000 C   0  0  0  0  0  0           0  0  0
  2  7  2  0     0  0
  1  2  1  0     0  0
  2  8  2  0     0  0
  1  6  2  0     0  0
  6  9  1  0     0  0
 14 19  1  0     0  0
 15 16  1  0     0  0
 16 17  1  0     0  0
 17 18  1  0     0  0
 18 19  1  0     0  0
  2  3  1  0     0  0
 13 20  2  0     0  0
  9 10  1  0     0  0
 20 21  1  0     0  0
  3  4  1  0     0  0
 21 22  2  0     0  0
  9 11  2  0     0  0
 22 23  1  0     0  0
  4  5  2  0     0  0
 23 24  2  0     0  0
 24 13  1  0     0  0
  3 12  1  0     0  0
 22 25  1  0     0  0
  5  6  1  0     0  0
 12 26  1  0     0  0
  4 13  1  0     0  0
 26 27  1  0     0  0
 27 28  1  0     0  0
 10 14  1  0     0  0
 28 29  1  0     0  0
 14 15  1  0     0  0
 29 30  1  0     0  0
M  END