
          11280715082D 1   1.00000     0.00000     0

 18 19  0     0  0            999 V2000
   -1.3458   -0.2042    0.0000 C   0  0  0  0  0  0           0  0  0
   -0.8250    0.6958    0.0000 C   0  0  0  0  0  0           0  0  0
   -0.3083   -0.2042    0.0000 C   0  0  0  0  0  0           0  0  0
   -1.3458    0.3958    0.0000 C   0  0  0  0  0  0           0  0  0
   -0.8250   -0.5042    0.0000 C   0  0  0  0  0  0           0  0  0
   -0.3083    0.3958    0.0000 C   0  0  0  0  0  0           0  0  0
    0.2125    0.7000    0.0000 C   0  0  0  0  0  0           0  0  0
    0.2167   -0.5042    0.0000 C   0  0  0  0  0  0           0  0  0
   -0.8333    1.2958    0.0000 C   0  0  0  0  0  0           0  0  0
   -1.8625   -0.5042    0.0000 O   0  0  0  0  0  0           0  0  0
   -0.8208   -1.1042    0.0000 C   0  0  3  0  0  0           0  0  0
   -1.3500    1.5958    0.0000 O   0  0  0  0  0  0           0  0  0
   -1.8625    0.6958    0.0000 O   0  0  0  0  0  0           0  0  0
    0.7292    0.4083    0.0000 C   0  0  0  0  0  0           0  0  0
    0.7375   -0.2000    0.0000 C   0  0  0  0  0  0           0  0  0
   -1.3458   -1.4042    0.0000 C   0  0  0  0  0  0           0  0  0
   -0.3000   -1.4042    0.0000 C   0  0  0  0  0  0           0  0  0
    1.2542   -0.5000    0.0000 C   0  0  0  0  0  0           0  0  0
  2  4  1  0     0  0
  3  5  2  0     0  0
  4  1  2  0     0  0
  5  1  1  0     0  0
  6  3  1  0     0  0
  7  6  1  0     0  0
  8  3  1  0     0  0
  9  2  1  0     0  0
 10  1  1  0     0  0
 11  5  1  0     0  0
 12  9  2  0     0  0
 13  4  1  0     0  0
 14 15  1  0     0  0
 15  8  2  0     0  0
 16 11  1  0     0  0
 17 11  1  0     0  0
 18 15  1  0     0  0
  6  2  2  0     0  0
  7 14  2  0     0  0
M  END