
  SciTegic01091215432D

 64 70  0  0  0  0            999 V2000
    7.5427   -4.4621    0.0000 N   0  0
    8.2593   -4.8708    0.0000 C   0  0
    8.9716   -4.4545    0.0000 C   0  0
    8.2637   -5.6958    0.0000 O   0  0
    9.6882   -4.8632    0.0000 C   0  0
    9.6926   -5.6882    0.0000 C   0  0
   10.4093   -6.0969    0.0000 C   0  0
   10.4136   -6.9219    0.0000 C   0  0
    9.7014   -7.3382    0.0000 N   0  0
    9.7057   -8.1632    0.0000 C   0  0
    8.9935   -8.5795    0.0000 O   0  0
   10.4224   -8.5719    0.0000 C   0  0
   10.4268   -9.3969    0.0000 O   0  0
   11.1434   -9.8056    0.0000 C   0  0
   11.1425  -10.6284    0.0000 C   0  0
   11.8583  -11.0370    0.0000 C   0  0
   12.5716  -10.6206    0.0000 C   0  0
   12.5645   -9.7914    0.0000 C   0  0
   11.8482   -9.3865    0.0000 C   0  0
   13.2888  -11.0284    0.0000 C   0  0
   14.0005  -10.6112    0.0000 C   0  0
   14.6828  -11.0750    0.0000 C   0  0
   14.7132  -11.8974    0.0000 C   0  0
   15.5055  -12.1276    0.0000 C   0  0
   15.4635  -10.7934    0.0000 N   0  0
   15.9655  -11.4463    0.0000 C   0  0
   16.7774  -11.3385    0.0000 C   0  0
   15.7733  -10.0328    0.0000 B   0  5
   15.7659   -9.2064    0.0000 F   0  0
   16.5916   -9.9259    0.0000 N   0  3
   17.0931  -10.5754    0.0000 C   0  0
   17.8658  -10.2992    0.0000 C   0  0
   17.8419   -9.4789    0.0000 C   0  0
   17.0544   -9.2483    0.0000 C   0  0
   16.7766   -8.4715    0.0000 C   0  0
   17.2381   -7.7908    0.0000 C   0  0
   16.7339   -7.1378    0.0000 C   0  0
   15.9570   -7.4156    0.0000 C   0  0
   15.9812   -8.2402    0.0000 S   0  0
   15.0534   -9.6189    0.0000 F   0  0
   -3.8764   -6.1666    0.0000 C   0  0
   -3.8776   -6.9940    0.0000 C   0  0
   -3.1628   -7.4069    0.0000 C   0  0
   -3.1646   -5.7539    0.0000 C   0  0
   -2.4492   -6.1630    0.0000 C   0  0
   -2.4484   -6.9898    0.0000 C   0  0
   -1.7331   -7.4008    0.0000 C   0  0
   -1.0181   -6.9860    0.0000 C   0  0
   -1.0229   -6.1561    0.0000 C   0  0
   -1.7388   -5.7488    0.0000 C   0  0
   -1.7431   -4.9239    0.0000 O   0  0
   -1.0309   -4.5076    0.0000 C   0  0
   -0.3142   -4.9163    0.0000 C   0  0
    0.3981   -4.5000    0.0000 C   0  0
   -0.3098   -5.7413    0.0000 O   0  0
    1.1147   -4.9087    0.0000 N   0  0
    1.8270   -4.4924    0.0000 C   0  0
    2.5436   -4.9011    0.0000 C   0  0
    3.2559   -4.4848    0.0000 C   0  0
    3.9726   -4.8935    0.0000 C   0  0
    4.6848   -4.4773    0.0000 C   0  0
    5.4015   -4.8860    0.0000 C   0  0
    6.1138   -4.4697    0.0000 C   0  0
    6.8304   -4.8784    0.0000 C   0  0
  7  8  1  0
 15 16  1  0
 16 17  2  0
 31 32  1  0
 32 33  2  0
 33 34  1  0
 34 30  2  0
  8  9  1  0
 34 35  1  0
 35 36  2  0
 17 18  1  0
  3  5  1  0
 18 19  2  0
 19 14  1  0
 36 37  1  0
 37 38  2  0
 38 39  1  0
 39 35  1  0
  9 10  1  0
 28 40  1  0
 17 20  1  0
  2  3  1  0
 41 42  1  0
 20 21  2  0
 42 43  2  0
 43 46  1  0
 10 11  2  0
 45 44  1  0
 44 41  2  0
 21 22  1  0
 22 23  2  0
 45 46  2  0
  5  6  1  0
 46 47  1  0
 10 12  1  0
 47 48  2  0
 23 24  1  0
 48 49  1  0
 24 26  2  0
 49 50  2  0
 50 45  1  0
 25 22  1  0
 50 51  1  0
 25 26  1  0
 51 52  1  0
  1  2  1  0
 52 53  1  0
 12 13  1  0
 53 54  1  0
  6  7  1  0
 53 55  1  0
 13 14  1  0
 54 56  1  0
 25 28  1  0
 56 57  1  0
 26 27  1  0
 57 58  1  0
 27 31  2  0
 58 59  1  0
 30 28  1  0
 59 60  1  0
  2  4  2  0
 60 61  1  0
 28 29  1  0
 61 62  1  0
 30 31  1  0
 62 63  1  0
 14 15  2  0
 63 64  1  0
 64  1  1  0
M  CHG  2  28  -1  30   1
M  END