
          11280715112D 1   1.00000     0.00000     0

 33 36  0     1  0            999 V2000
    7.6292   -4.9542    0.0000 N   0  0  3  0  0  0           0  0  0
    6.9167   -4.5417    0.0000 C   0  0  0  0  0  0           0  0  0
    6.2042   -4.9542    0.0000 C   0  0  1  0  0  0           0  0  0
    7.6292   -5.7792    0.0000 C   0  0  1  0  0  0           0  0  0
    4.7792   -4.9625    0.0000 C   0  0  0  0  0  0           0  0  0
    5.4917   -4.5417    0.0000 N   0  0  0  0  0  0           0  0  0
    7.6292   -6.6042    0.0000 C   0  0  0  0  0  0           0  0  0
    6.9167   -6.1917    0.0000 C   0  0  0  0  0  0           0  0  0
    5.6167   -5.5417    0.0000 C   0  0  0  0  0  0           0  0  0
    6.2042   -5.7792    0.0000 C   0  0  0  0  0  0           0  0  0
    6.9167   -3.7167    0.0000 O   0  0  0  0  0  0           0  0  0
    4.7792   -5.7875    0.0000 O   0  0  0  0  0  0           0  0  0
    4.0625   -4.5500    0.0000 O   0  0  0  0  0  0           0  0  0
    6.4417   -7.6250    0.0000 C   0  0  0  0  0  0           0  0  0
    5.8292   -6.3375    0.0000 C   0  0  0  0  0  0           0  0  0
    6.5042   -6.8042    0.0000 C   0  0  0  0  0  0           0  0  0
    6.9042   -7.0042    0.0000 O   0  0  0  0  0  0           0  0  0
    4.0667   -6.2000    0.0000 C   0  0  3  0  0  0           0  0  0
    5.6917   -7.9792    0.0000 C   0  0  0  0  0  0           0  0  0
    8.4042   -4.7000    0.0000 C   0  0  0  0  0  0           0  0  0
    5.0125   -7.5125    0.0000 C   0  0  0  0  0  0           0  0  0
    8.4167   -6.0292    0.0000 C   0  0  0  0  0  0           0  0  0
    8.3375   -7.0167    0.0000 O   0  0  0  0  0  0           0  0  0
    5.0792   -6.6917    0.0000 C   0  0  0  0  0  0           0  0  0
    8.8917   -5.3542    0.0000 C   0  0  0  0  0  0           0  0  0
    7.1167   -8.0917    0.0000 C   0  0  0  0  0  0           0  0  0
    3.8500   -5.4042    0.0000 C   0  0  0  0  0  0           0  0  0
    3.3500   -5.7917    0.0000 C   0  0  0  0  0  0           0  0  0
    4.0667   -7.0250    0.0000 C   0  0  0  0  0  0           0  0  0
    5.6292   -8.8042    0.0000 C   0  0  0  0  0  0           0  0  0
    8.3292   -7.8417    0.0000 C   0  0  0  0  0  0           0  0  0
    7.0625   -8.9125    0.0000 C   0  0  0  0  0  0           0  0  0
    6.3125   -9.2667    0.0000 C   0  0  0  0  0  0           0  0  0
  2  1  1  0     0  0
  3  2  1  0     0  0
  4  1  1  0     0  0
  5  6  1  0     0  0
  3  6  1  1     0  0
  4  7  1  1     0  0
  8  4  1  0     0  0
  3  9  1  6     0  0
 10  8  1  0     0  0
 11  2  2  0     0  0
 12  5  1  0     0  0
 13  5  2  0     0  0
 14 16  2  0     0  0
 15  9  1  0     0  0
 16 15  1  0     0  0
 17  7  2  0     0  0
 18 12  1  0     0  0
 19 21  2  0     0  0
 20  1  1  0     0  0
 21 24  1  0     0  0
 22  4  1  0     0  0
 23  7  1  0     0  0
 24 15  2  0     0  0
 25 20  1  0     0  0
 26 14  1  0     0  0
 27 18  1  0     0  0
 28 18  1  0     0  0
 29 18  1  0     0  0
 30 19  1  0     0  0
 31 23  1  0     0  0
 32 26  2  0     0  0
 33 30  2  0     0  0
 22 25  1  0     0  0
  3 10  1  0     0  0
 14 19  1  0     0  0
 33 32  1  0     0  0
M  END