
  SciTegic01161211242D

 40 45  0  0  0  0            999 V2000
   17.1591   -1.5422    0.0000 C   0  0
   17.8451   -1.0842    0.0000 C   0  0
   18.6166   -1.3732    0.0000 N   0  0
   17.8755   -0.2630    0.0000 C   0  0
   18.6695   -0.0393    0.0000 N   0  0
   19.1223   -0.7249    0.0000 C   0  0
   19.9143   -0.5062    0.0000 S   0  0
   19.1817    0.6032    0.0000 C   0  0
   19.9518    0.3105    0.0000 C   0  0
   20.5882    0.8306    0.0000 C   0  0
   20.4558    1.6434    0.0000 C   0  0
   19.6814    1.9335    0.0000 C   0  0
   19.0482    1.4115    0.0000 C   0  0
   15.7319   -1.5458    0.0000 C   0  0
   15.7307   -2.3732    0.0000 C   0  0
   16.4456   -2.7860    0.0000 C   0  0
   17.1620   -2.3727    0.0000 C   0  0
   16.4438   -1.1330    0.0000 C   0  0
   15.0160   -2.7851    0.0000 N   0  0
   14.3018   -2.3720    0.0000 C   0  0
   13.5870   -2.7840    0.0000 N   0  0
   14.3025   -1.5470    0.0000 O   0  0
   12.8729   -2.3709    0.0000 C   0  0
   12.7915   -1.5476    0.0000 C   0  0
   11.9847   -1.3754    0.0000 C   0  0
   11.5716   -2.0896    0.0000 O   0  0
   12.1232   -2.7030    0.0000 N   0  0
   11.6497   -0.6215    0.0000 C   0  0
   12.1352    0.0456    0.0000 C   0  0
   10.8208   -0.6208    0.0000 C   0  0
   11.2292    0.0958    0.0000 C   0  0
   18.2754    1.7012    0.0000 O   0  0
   17.5736    1.2675    0.0000 C   0  0
   16.8471    1.6584    0.0000 C   0  0
   16.1453    1.2247    0.0000 N   0  0
   15.4199    1.6223    0.0000 C   0  0
   14.7201    1.1922    0.0000 C   0  0
   14.7406    0.3671    0.0000 O   0  0
   15.4670   -0.0261    0.0000 C   0  0
   16.1729    0.4059    0.0000 C   0  0
  5  4  1  0
 15 19  1  0
  8  9  2  0
 19 20  1  0
  4  2  2  0
 20 21  1  0
  9 10  1  0
 20 22  2  0
  5  6  1  0
 21 23  1  0
 23 24  1  0
 10 11  2  0
  2  3  1  0
 11 12  1  0
 24 25  2  0
 25 26  1  0
 26 27  1  0
 27 23  2  0
 12 13  2  0
 25 28  1  0
 13  8  1  0
 28 29  1  0
  1  2  1  0
 28 30  1  0
  6  7  1  0
 28 31  1  0
 14 15  2  0
 13 32  1  0
  7  9  1  0
 32 33  1  0
 15 16  1  0
 33 34  1  0
  8  5  1  0
 34 35  1  0
 35 36  1  0
 16 17  2  0
 17  1  1  0
  3  6  2  0
  1 18  2  0
 18 14  1  0
 35 40  1  0
 36 37  1  0
 37 38  1  0
 38 39  1  0
 39 40  1  0
M  END