
  SciTegic01161211252D

 32 34  0  0  0  0            999 V2000
    1.9646   -7.9591    0.0000 C   0  0  1  0  0  0
    1.9616   -8.7888    0.0000 C   0  0
    2.6726   -9.2001    0.0000 N   0  0
    2.6740   -7.5482    0.0000 O   0  0
    4.1155   -6.7286    0.0000 C   0  0
    3.3985   -6.3093    0.0000 C   0  0
    2.6746   -6.7199    0.0000 C   0  0
    4.1085   -7.5585    0.0000 C   0  0
    4.0805  -10.0398    0.0000 C   0  0
    1.9619   -6.3044    0.0000 O   0  0
    3.3768   -8.7944    0.0000 C   0  0
    4.0926   -9.2162    0.0000 C   0  0  2  0  0  0
    4.8172   -8.8028    0.0000 C   0  0
    4.8209   -7.9750    0.0000 C   0  0
    3.3808   -7.9694    0.0000 O   0  0
    4.7888  -10.4627    0.0000 C   0  0
    4.7767  -11.2876    0.0000 N   0  0
    5.5093  -10.0607    0.0000 O   0  0
    5.4851  -11.7106    0.0000 C   0  0
    5.4730  -12.5355    0.0000 C   0  0
    4.7511  -12.9326    0.0000 C   0  0
    4.7386  -13.7568    0.0000 C   0  0
    5.4475  -14.1805    0.0000 C   0  0
    6.1704  -13.7742    0.0000 C   0  0
    6.1793  -12.9513    0.0000 C   0  0
    5.4365  -15.0055    0.0000 Cl  0  0
    1.2506   -7.5458    0.0000 C   0  0
    1.2549   -6.7238    0.0000 C   0  0
    0.5417   -6.3106    0.0000 C   0  0
   -0.1742   -6.7224    0.0000 C   0  0
   -0.1725   -7.5516    0.0000 C   0  0
    0.5413   -7.9611    0.0000 C   0  0
  9 16  1  0
  3 11  1  0
 16 17  1  0
 16 18  2  0
 12  9  1  6
 17 19  1  0
  1  2  1  0
 19 20  1  0
  7 10  2  0
 20 21  2  0
  1  4  1  0
 21 22  1  0
  2  3  1  0
 22 23  2  0
 11 12  1  0
 23 24  1  0
  4  7  1  0
 24 25  2  0
 25 20  1  0
 12 13  1  0
 23 26  1  0
  8  5  1  0
  1 27  1  6
 13 14  1  0
 27 28  2  0
 14  8  2  0
 28 29  1  0
  5  6  1  0
 29 30  2  0
 11 15  2  0
 30 31  1  0
  6  7  1  0
 31 32  2  0
 32 27  1  0
M  END