
          11280714502D 1   1.00000     0.00000     0

 25 28  0     1  0            999 V2000
    1.7250   -0.1917    0.0000 N   0  0  3  0  0  0           0  0  0
    1.2042   -0.4917    0.0000 C   0  0  2  0  0  0           0  0  0
    0.6875   -0.1917    0.0000 C   0  0  0  0  0  0           0  0  0
    0.6917    0.4083    0.0000 C   0  0  0  0  0  0           0  0  0
    1.2000   -1.0875    0.0000 C   0  0  0  0  0  0           0  0  0
    0.1750   -0.4917    0.0000 C   0  0  0  0  0  0           0  0  0
    1.7167   -1.3875    0.0000 C   0  0  1  0  0  0           0  0  0
    2.2417   -0.4917    0.0000 C   0  0  0  0  0  0           0  0  0
   -0.3458   -0.1917    0.0000 C   0  0  0  0  0  0           0  0  0
    2.2417   -1.0917    0.0000 C   0  0  1  0  0  0           0  0  0
    0.1750    0.7083    0.0000 C   0  0  0  0  0  0           0  0  0
   -0.3458    0.4083    0.0000 C   0  0  0  0  0  0           0  0  0
    1.7250    0.4083    0.0000 C   0  0  0  0  0  0           0  0  0
    1.2042    0.7083    0.0000 C   0  0  0  0  0  0           0  0  0
    1.7125   -1.9792    0.0000 C   0  0  0  0  0  0           0  0  0
    2.7542   -1.3917    0.0000 C   0  0  0  0  0  0           0  0  0
    2.2250   -2.2875    0.0000 C   0  0  1  0  0  0           0  0  0
   -0.8625   -0.4917    0.0000 O   0  0  0  0  0  0           0  0  0
   -0.8625    0.7083    0.0000 O   0  0  0  0  0  0           0  0  0
    2.7417   -1.9917    0.0000 C   0  0  0  0  0  0           0  0  0
    2.5167   -2.8042    0.0000 O   0  0  0  0  0  0           0  0  0
    2.7542   -0.7917    0.0000 H   0  0  0  0  0  0           0  0  0
    1.9167   -2.8042    0.0000 H   0  0  0  0  0  0           0  0  0
    1.2000   -1.6792    0.0000 H   0  0  0  0  0  0           0  0  0
    0.6792   -0.7875    0.0000 H   0  0  0  0  0  0           0  0  0
  2  1  1  0     0  0
  3  2  1  0     0  0
  4 14  1  0     0  0
  5  2  1  0     0  0
  6  3  1  0     0  0
  7 10  1  0     0  0
  8  1  1  0     0  0
  9  6  2  0     0  0
 10  8  1  0     0  0
 11  4  1  0     0  0
 12 11  2  0     0  0
 13  1  1  0     0  0
 14 13  1  0     0  0
 15  7  1  0     0  0
 16 10  1  0     0  0
 17 20  1  0     0  0
 18  9  1  0     0  0
 19 12  1  0     0  0
 20 16  1  0     0  0
 17 21  1  1     0  0
 10 22  1  6     0  0
 17 23  1  6     0  0
  7 24  1  6     0  0
  2 25  1  6     0  0
  4  3  2  0     0  0
  7  5  1  0     0  0
  9 12  1  0     0  0
 17 15  1  0     0  0
M  END