
  SciTegic05171617292D

 21 22  0  0  0  0            999 V2000
    3.6387   -0.8963    0.0000 C   0  0
    2.6003   -1.4977    0.0000 O   0  0
    1.2990   -0.7500    0.0000 C   0  0
    1.2990    0.7500    0.0000 C   0  0
    0.0000    1.5000    0.0000 C   0  0
   -1.2990    0.7500    0.0000 C   0  0
   -2.6003    1.4977    0.0000 C   0  0
   -3.8990    0.7455    0.0000 C   0  0
   -4.0317   -0.7359    0.0000 S   0  0
   -5.4979   -1.0529    0.0000 C   0  0
   -5.9821   -2.1508    0.0000 S   0  0
   -6.2524    0.2436    0.0000 N   0  0
   -7.7426    0.3981    0.0000 C   0  0
   -8.3559    1.7679    0.0000 C   0  0
   -9.5495    1.8917    0.0000 N   0  0
   -5.2526    1.3618    0.0000 C   0  0
   -5.4992    2.5362    0.0000 O   0  0
   -1.2990   -0.7500    0.0000 C   0  0
    0.0000   -1.5000    0.0000 C   0  0
   -0.0031   -3.0008    0.0000 O   0  0
   -1.0432   -3.5994    0.0000 C   0  0
  1  2  1  0
  2  3  1  0
  3  4  2  0
  4  5  1  0
  5  6  2  0
  6  7  1  0
  7  8  2  0
  8  9  1  0
  9 10  1  0
 10 11  2  0
 10 12  1  0
 12 13  1  0
 13 14  1  0
 14 15  1  0
 12 16  1  0
  8 16  1  0
 16 17  2  0
  6 18  1  0
 18 19  2  0
  3 19  1  0
 19 20  1  0
 20 21  1  0
M  END