
  SciTegic05071316502D

 26 27  0  0  0  0            999 V2000
   19.6704  -24.7386    0.0000 N   0  0
   20.3781  -25.1472    0.0000 C   0  0
   21.0858  -24.7386    0.0000 N   0  0
   20.3781  -25.9644    0.0000 S   0  0
   18.9627  -25.1472    0.0000 C   0  0
   21.7935  -25.1472    0.0000 C   0  0
   21.7890  -25.9655    0.0000 N   0  0
   22.4959  -26.3740    0.0000 C   0  0
   22.4945  -24.7391    0.0000 C   0  0
   23.2019  -25.1439    0.0000 C   0  0
   23.2010  -25.9639    0.0000 N   0  0
   18.2565  -24.7338    0.0000 C   0  0
   17.5493  -25.1417    0.0000 C   0  0
   17.5488  -25.9598    0.0000 C   0  0
   18.2615  -26.3682    0.0000 C   0  0
   18.9658  -25.9580    0.0000 C   0  0
   22.4970  -27.1912    0.0000 N   0  0
   21.7899  -27.6007    0.0000 C   0  0
   21.7910  -28.4179    0.0000 C   0  0
   23.2053  -27.5988    0.0000 C   0  0
   23.2064  -28.4160    0.0000 C   0  0
   23.9091  -24.7344    0.0000 C   0  0
   22.4896  -23.9203    0.0000 N   0  3
   21.7804  -23.5143    0.0000 O   0  0
   23.1958  -23.5090    0.0000 O   0  5
   18.2644  -27.1854    0.0000 Br  0  0
  1  2  1  0
  2  3  1  0
  2  4  2  0
  1  5  1  0
  3  6  1  0
  6  7  2  0
  7  8  1  0
  8 11  2  0
 10  9  2  0
  9  6  1  0
 10 11  1  0
  5 12  2  0
 12 13  1  0
 13 14  2  0
 14 15  1  0
 15 16  2  0
 16  5  1  0
  8 17  1  0
 17 18  1  0
 18 19  1  0
 17 20  1  0
 20 21  1  0
 10 22  1  0
 23 24  2  0
 23 25  1  0
  9 23  1  0
 15 26  1  0
M  CHG  2  23   1  25  -1
M  END