
          02060813482D 1   1.00000     0.00000     0

 28 30  0     0  0            999 V2000
   -3.4306  -19.6250    0.0000 C   0  0  0  0  0  0           0  0  0
   -3.4318  -20.4523    0.0000 C   0  0  0  0  0  0           0  0  0
   -2.7169  -20.8652    0.0000 C   0  0  0  0  0  0           0  0  0
   -2.0005  -20.4519    0.0000 C   0  0  0  0  0  0           0  0  0
   -2.0034  -19.6213    0.0000 C   0  0  0  0  0  0           0  0  0
   -2.7187  -19.2122    0.0000 C   0  0  0  0  0  0           0  0  0
   -1.2904  -19.2061    0.0000 O   0  0  0  0  0  0           0  0  0
   -1.2854  -20.8632    0.0000 C   0  0  0  0  0  0           0  0  0
   -1.2890  -21.6886    0.0000 C   0  0  0  0  0  0           0  0  0
   -0.5747  -22.0999    0.0000 C   0  0  0  0  0  0           0  0  0
    0.1401  -21.6862    0.0000 C   0  0  0  0  0  0           0  0  0
    0.1361  -20.8569    0.0000 C   0  0  0  0  0  0           0  0  0
   -0.5787  -20.4494    0.0000 N   0  0  0  0  0  0           0  0  0
    0.8485  -20.4408    0.0000 O   0  0  0  0  0  0           0  0  0
    0.8558  -22.0966    0.0000 C   0  0  0  0  0  0           0  0  0
    1.5667  -22.5083    0.0000 N   0  0  0  0  0  0           0  0  0
   -0.5738  -22.9249    0.0000 C   0  0  0  0  0  0           0  0  0
   -1.2873  -23.3332    0.0000 C   0  0  0  0  0  0           0  0  0
   -1.2867  -24.1575    0.0000 C   0  0  0  0  0  0           0  0  0
   -0.5712  -24.5700    0.0000 C   0  0  0  0  0  0           0  0  0
    0.1451  -24.1523    0.0000 C   0  0  0  0  0  0           0  0  0
    0.1411  -23.3294    0.0000 C   0  0  0  0  0  0           0  0  0
   -4.1466  -20.8643    0.0000 Br  0  0  0  0  0  0           0  0  0
    0.8527  -22.9121    0.0000 Cl  0  0  0  0  0  0           0  0  0
   -2.0009  -24.5704    0.0000 C   0  0  3  0  0  0           0  0  0
   -2.7208  -24.9750    0.0000 F   0  0  0  0  0  0           0  0  0
   -1.5924  -25.2871    0.0000 F   0  0  0  0  0  0           0  0  0
   -2.4088  -23.8533    0.0000 F   0  0  0  0  0  0           0  0  0
  1  2  2  0     0  0
 12 14  2  0     0  0
  5  7  1  0     0  0
 11 15  1  0     0  0
  3  4  2  0     0  0
 15 16  3  0     0  0
  4  8  1  0     0  0
 10 17  1  0     0  0
 17 18  2  0     0  0
  8  9  2  0     0  0
 18 19  1  0     0  0
  4  5  1  0     0  0
 19 20  2  0     0  0
  9 10  1  0     0  0
 20 21  1  0     0  0
  2  3  1  0     0  0
 21 22  2  0     0  0
 22 17  1  0     0  0
 10 11  2  0     0  0
  2 23  1  0     0  0
  5  6  2  0     0  0
 22 24  1  0     0  0
 11 12  1  0     0  0
 19 25  1  0     0  0
  6  1  1  0     0  0
 25 26  1  0     0  0
 12 13  1  0     0  0
 25 27  1  0     0  0
 13  8  1  0     0  0
 25 28  1  0     0  0
M  END