
  SciTegic10191216002D

 27 30  0  0  0  0            999 V2000
    0.4017  -11.0923    0.0000 C   0  0
    1.1142  -11.5091    0.0000 C   0  0
    1.8277  -11.0966    0.0000 C   0  0
    1.8275  -10.2707    0.0000 C   0  0
    1.1076   -9.8591    0.0000 C   0  0
    0.3970  -10.2739    0.0000 C   0  0
   -0.3197   -9.8653    0.0000 O   0  0
   -1.0319  -10.2815    0.0000 C   0  0
   -1.7476   -9.8709    0.0000 C   0  0
   -2.4594  -10.2864    0.0000 C   0  0
   -2.4554  -11.1123    0.0000 C   0  0
   -1.7338  -11.5208    0.0000 C   0  0
   -1.0250  -11.1030    0.0000 C   0  0
   -3.1671  -11.5295    0.0000 O   0  0
    2.5424  -11.5089    0.0000 C   0  0
    3.2567  -11.0960    0.0000 C   0  0
    4.0099  -11.4261    0.0000 C   0  0
    4.5617  -10.8128    0.0000 N   0  0
    4.1488  -10.0985    0.0000 C   0  0
    3.3420  -10.2705    0.0000 N   0  0
    4.4840   -9.3446    0.0000 O   0  0
    4.1840  -12.2325    0.0000 O   0  0
    1.1039   -9.0341    0.0000 I   0  0
   -0.3127  -11.5048    0.0000 I   0  0
   -3.1758   -9.8775    0.0000 C   0  0
   -3.5921   -9.1690    0.0000 C   0  0
   -4.0017   -9.8863    0.0000 C   0  0
 13  8  1  0
  1  2  2  0
 11 14  1  0
  6  7  1  0
  3 15  1  0
  3  4  2  0
 16 15  1  0
 16 17  1  0
  7  8  1  0
  8  9  2  0
  4  5  1  0
 17 18  1  0
 18 19  1  0
 19 20  1  0
 20 16  1  0
  9 10  1  0
 19 21  2  0
  2  3  1  0
 17 22  2  0
 10 11  2  0
  5 23  1  0
  5  6  2  0
  1 24  1  0
 11 12  1  0
 10 25  1  0
  6  1  1  0
 12 13  2  0
 26 27  1  0
 26 25  1  0
 27 25  1  0
M  END