
          11280715042D 1   1.00000     0.00000     0

 36 37  0     0  0            999 V2000
   -1.4083   -1.5042    0.0000 S   0  0  3  0  0  0           0  0  0
    0.5292   -0.0667    0.0000 C   0  0  0  0  0  0           0  0  0
   -0.9208   -1.1500    0.0000 C   0  0  0  0  0  0           0  0  0
    1.0875   -0.3000    0.0000 N   0  0  0  0  0  0           0  0  0
   -1.7625   -1.0167    0.0000 O   0  0  0  0  0  0           0  0  0
   -1.0458   -1.9917    0.0000 O   0  0  0  0  0  0           0  0  0
    2.1167   -0.1792    0.0000 C   0  0  0  0  0  0           0  0  0
    1.7667   -1.7292    0.0000 C   0  0  0  0  0  0           0  0  0
    3.3542   -1.8500    0.0000 C   0  0  0  0  0  0           0  0  0
    3.0042   -3.4000    0.0000 C   0  0  0  0  0  0           0  0  0
    0.0417   -0.4292    0.0000 C   0  0  0  0  0  0           0  0  0
   -1.8958   -1.8625    0.0000 N   0  0  0  0  0  0           0  0  0
    2.1875   -0.7750    0.0000 N   0  0  0  0  0  0           0  0  0
    3.4250   -2.4417    0.0000 N   0  0  0  0  0  0           0  0  0
    2.3167   -1.9667    0.0000 N   0  0  0  0  0  0           0  0  0
    0.4500    0.5333    0.0000 O   0  0  0  0  0  0           0  0  0
    3.8375   -1.4917    0.0000 O   0  0  0  0  0  0           0  0  0
    2.6000    0.1833    0.0000 O   0  0  0  0  0  0           0  0  0
    1.2875   -2.0792    0.0000 O   0  0  0  0  0  0           0  0  0
    3.5542   -3.6417    0.0000 O   0  0  0  0  0  0           0  0  0
   -0.3708   -1.3875    0.0000 C   0  0  0  0  0  0           0  0  0
   -0.9833   -0.5500    0.0000 C   0  0  0  0  0  0           0  0  0
   -0.5000   -0.1917    0.0000 C   0  0  0  0  0  0           0  0  0
    0.1125   -1.0292    0.0000 C   0  0  0  0  0  0           0  0  0
    2.5250   -3.7542    0.0000 O   0  0  0  0  0  0           0  0  0
    1.5625    0.0583    0.0000 C   0  0  0  0  0  0           0  0  0
    1.7042   -1.1292    0.0000 C   0  0  0  0  0  0           0  0  0
    2.8042   -1.6125    0.0000 C   0  0  0  0  0  0           0  0  0
    2.9417   -2.8042    0.0000 C   0  0  0  0  0  0           0  0  0
    2.5917   -4.3542    0.0000 C   0  0  0  0  0  0           0  0  0
    2.1042   -4.7042    0.0000 C   0  0  0  0  0  0           0  0  0
    1.5542   -4.4625    0.0000 C   0  0  0  0  0  0           0  0  0
    2.1750   -5.3042    0.0000 C   0  0  0  0  0  0           0  0  0
    1.6917   -5.6625    0.0000 C   0  0  0  0  0  0           0  0  0
    1.0667   -4.8167    0.0000 C   0  0  0  0  0  0           0  0  0
    1.1417   -5.4167    0.0000 C   0  0  0  0  0  0           0  0  0
  2 11  1  0     0  0
  3  1  1  0     0  0
  4  2  1  0     0  0
  5  1  2  0     0  0
  6  1  2  0     0  0
  7 26  1  0     0  0
  8 27  1  0     0  0
  9 28  1  0     0  0
 10 29  1  0     0  0
 11 23  1  0     0  0
 12  1  1  0     0  0
 13  7  1  0     0  0
 14  9  1  0     0  0
 15  8  1  0     0  0
 16  2  2  0     0  0
 17  9  2  0     0  0
 18  7  2  0     0  0
 19  8  2  0     0  0
 20 10  2  0     0  0
 21  3  2  0     0  0
 22  3  1  0     0  0
 23 22  2  0     0  0
 24 21  1  0     0  0
 25 10  1  0     0  0
 26  4  1  0     0  0
 27 13  1  0     0  0
 28 15  1  0     0  0
 29 14  1  0     0  0
 30 25  1  0     0  0
 31 30  1  0     0  0
 32 31  2  0     0  0
 33 31  1  0     0  0
 34 33  2  0     0  0
 35 32  1  0     0  0
 36 34  1  0     0  0
 24 11  2  0     0  0
 35 36  2  0     0  0
M  END