
  SciTegic10311316302D

 24 25  0  0  0  0            999 V2000
   18.7731   -5.7358    0.0000 C   0  0
   18.7993   -4.9112    0.0000 N   0  0
   18.0984   -4.4761    0.0000 C   0  0
   17.3712   -4.8656    0.0000 C   0  0
   17.3448   -5.6902    0.0000 C   0  0
   18.0458   -6.1253    0.0000 N   0  0
   16.6701   -4.4306    0.0000 C   0  0
   15.9429   -4.8201    0.0000 O   0  0
   16.6965   -3.6060    0.0000 O   0  0
   19.4740   -6.1708    0.0000 S   0  0
   19.4478   -6.9954    0.0000 C   0  0
   16.6176   -6.0797    0.0000 C   0  0
   18.1248   -3.6515    0.0000 C   0  0
   18.8520   -3.2620    0.0000 C   0  0
   18.8783   -2.4374    0.0000 C   0  0
   18.1773   -2.0024    0.0000 C   0  0
   17.4501   -2.3919    0.0000 C   0  0
   17.4237   -3.2165    0.0000 C   0  0
   19.6055   -2.0479    0.0000 N   0  3
   19.6319   -1.2234    0.0000 O   0  0
   20.3065   -2.4830    0.0000 O   0  5
   15.9956   -3.1709    0.0000 C   0  0
   16.0218   -2.3463    0.0000 C   0  0
   15.2683   -3.5604    0.0000 C   0  0
  1  2  2  0
  2  3  1  0
  3  4  1  0
  4  5  2  0
  5  6  1  0
  1  6  1  0
  7  8  2  0
  7  9  1  0
  4  7  1  0
 10 11  1  0
  1 10  1  0
  5 12  1  0
 13 14  1  0
 14 15  2  0
 15 16  1  0
 16 17  2  0
 17 18  1  0
 13 18  2  0
 19 20  2  0
 19 21  1  0
 15 19  1  0
  3 13  1  0
 22 23  1  0
 22 24  1  0
  9 22  1  0
M  CHG  2  19   1  21  -1
M  END