
  SciTegic12171313052D

 31 35  0  0  0  0            999 V2000
    6.0532   -5.8276    0.0000 C   0  0
    6.0521   -6.6471    0.0000 C   0  0
    6.7601   -7.0561    0.0000 N   0  0
    7.4698   -6.6467    0.0000 C   0  0
    7.4670   -5.8240    0.0000 C   0  0
    6.7583   -5.4187    0.0000 C   0  0
    5.3441   -7.0552    0.0000 C   0  0  2  0  0  0
    4.6367   -6.6460    0.0000 N   0  0
    5.3434   -7.8724    0.0000 C   0  0
    3.3469   -6.3718    0.0000 N   0  0
    3.8933   -6.9794    0.0000 C   0  0
    3.7561   -5.6644    0.0000 C   0  0
    4.5557   -5.8383    0.0000 C   0  0
    5.1031   -5.2362    0.0000 C   0  0
    4.8563   -4.4567    0.0000 N   0  0
    3.5039   -4.8883    0.0000 C   0  0
    4.0608   -4.2815    0.0000 C   0  0
    3.8134   -3.4979    0.0000 C   0  0
    3.0095   -3.3199    0.0000 C   0  0
    2.4534   -3.9317    0.0000 C   0  0
    2.7038   -4.7130    0.0000 C   0  0
    2.7653   -2.5392    0.0000 C   0  0
    3.2490   -1.8835    0.0000 C   0  0
    2.7661   -1.2142    0.0000 O   0  0
    1.9935   -1.4731    0.0000 N   0  0
    1.9835   -2.2782    0.0000 C   0  0
    3.7243   -7.7789    0.0000 O   0  0
    4.0662   -1.8878    0.0000 C   0  0
    1.3175   -2.7518    0.0000 C   0  0
    1.6549   -3.7583    0.0000 O   0  0
    1.1054   -4.3632    0.0000 C   0  0
  1  2  2  0
  2  3  1  0
  3  4  2  0
  4  5  1  0
  5  6  2  0
  6  1  1  0
  2  7  1  0
  7  8  1  0
  7  9  1  1
  8 13  1  0
 12 10  1  0
 10 11  1  0
 11  8  1  0
 12 13  2  0
 12 16  1  0
 13 14  1  0
 14 15  2  0
 15 17  1  0
 16 17  2  0
 17 18  1  0
 18 19  2  0
 19 20  1  0
 20 21  2  0
 21 16  1  0
 22 23  2  0
 23 24  1  0
 24 25  1  0
 25 26  2  0
 26 22  1  0
 19 22  1  0
 11 27  2  0
 23 28  1  0
 26 29  1  0
 20 30  1  0
 30 31  1  0
M  END