
          05080814042D 1   1.00000     0.00000     0

 41 46  0     1  0            999 V2000
    6.3268  -10.4613    0.0000 C   0  0  0  0  0  0           0  0  0
    5.6160  -10.8762    0.0000 C   0  0  0  0  0  0           0  0  0
    5.6230  -11.7025    0.0000 C   0  0  0  0  0  0           0  0  0
    6.3369  -12.1060    0.0000 C   0  0  0  0  0  0           0  0  0
    7.0401  -10.8685    0.0000 C   0  0  0  0  0  0           0  0  0
    7.0461  -11.6962    0.0000 C   0  0  0  0  0  0           0  0  0
    7.7620  -12.1026    0.0000 C   0  0  0  0  0  0           0  0  0
    7.7499  -10.4472    0.0000 C   0  0  0  0  0  0           0  0  0
    8.4703  -10.8581    0.0000 C   0  0  2  0  0  0           0  0  0
    8.4749  -11.6877    0.0000 C   0  0  2  0  0  0           0  0  0
    9.1916  -12.0963    0.0000 N   0  0  3  0  0  0           0  0  0
    9.9085  -11.6798    0.0000 C   0  0  0  0  0  0           0  0  0
    9.9039  -10.8502    0.0000 C   0  0  1  0  0  0           0  0  0
    9.1825  -10.4371    0.0000 C   0  0  0  0  0  0           0  0  0
    8.4625  -10.0292    0.0000 H   0  0  0  0  0  0           0  0  0
    8.4667  -12.5125    0.0000 H   0  0  0  0  0  0           0  0  0
   10.6165  -10.4345    0.0000 C   0  0  0  0  0  0           0  0  0
   11.3328  -10.8438    0.0000 N   0  0  3  0  0  0           0  0  0
   10.6128   -9.6095    0.0000 O   0  0  0  0  0  0           0  0  0
   11.3305  -11.6720    0.0000 C   0  0  0  0  0  0           0  0  0
   12.0427  -12.0812    0.0000 C   0  0  0  0  0  0           0  0  0
   12.7578  -11.6690    0.0000 N   0  0  3  0  0  0           0  0  0
   12.7561  -10.8431    0.0000 C   0  0  0  0  0  0           0  0  0
   12.0393  -10.4293    0.0000 C   0  0  0  0  0  0           0  0  0
    6.3228   -9.6363    0.0000 O   0  0  0  0  0  0           0  0  0
    5.6064   -9.2273    0.0000 C   0  0  0  0  0  0           0  0  0
    9.1950  -12.9213    0.0000 C   0  0  0  0  0  0           0  0  0
   13.4725  -12.0811    0.0000 C   0  0  0  0  0  0           0  0  0
   13.4686  -12.9052    0.0000 C   0  0  0  0  0  0           0  0  0
   14.1825  -13.3172    0.0000 C   0  0  0  0  0  0           0  0  0
   14.8977  -12.9041    0.0000 C   0  0  0  0  0  0           0  0  0
   14.8945  -12.0749    0.0000 C   0  0  0  0  0  0           0  0  0
   14.1800  -11.6667    0.0000 N   0  0  0  0  0  0           0  0  0
   15.6072  -11.6594    0.0000 O   0  0  0  0  0  0           0  0  0
   16.3234  -12.0688    0.0000 C   0  0  0  0  0  0           0  0  0
   17.0361  -11.6533    0.0000 C   0  0  0  0  0  0           0  0  0
   17.7497  -12.0629    0.0000 C   0  0  0  0  0  0           0  0  0
   18.4619  -11.6481    0.0000 C   0  0  0  0  0  0           0  0  0
   18.4589  -10.8222    0.0000 C   0  0  0  0  0  0           0  0  0
   17.7377  -10.4129    0.0000 C   0  0  0  0  0  0           0  0  0
   17.0284  -10.8301    0.0000 C   0  0  0  0  0  0           0  0  0
 18 20  1  0     0  0
  9 10  1  0     0  0
  3  4  2  0     0  0
  4  6  1  0     0  0
  5  6  2  0     0  0
  1  2  2  0     0  0
 18 24  1  0     0  0
 20 21  1  0     0  0
 21 22  1  0     0  0
 22 23  1  0     0  0
 23 24  1  0     0  0
  5  1  1  0     0  0
  1 25  1  0     0  0
  2  3  1  0     0  0
 25 26  1  0     0  0
  9 14  1  0     0  0
 11 27  1  0     0  0
 10 11  1  0     0  0
 22 28  1  0     0  0
 11 12  1  0     0  0
 28 29  2  0     0  0
 12 13  1  0     0  0
 29 30  1  0     0  0
 13 14  1  0     0  0
 30 31  2  0     0  0
 31 32  1  0     0  0
  9 15  1  6     0  0
 32 33  2  0     0  0
 33 28  1  0     0  0
  5  8  1  0     0  0
 32 34  1  0     0  0
 10 16  1  1     0  0
 34 35  1  0     0  0
  6  7  1  0     0  0
 35 36  1  0     0  0
 13 17  1  1     0  0
 36 37  2  0     0  0
  7 10  1  0     0  0
 37 38  1  0     0  0
 17 18  1  0     0  0
 38 39  2  0     0  0
  9  8  1  0     0  0
 39 40  1  0     0  0
 17 19  2  0     0  0
 40 41  2  0     0  0
 41 36  1  0     0  0
M  END