
  SciTegic02011310432D

 65 71  0  0  0  0            999 V2000
   -0.5042    1.1833    0.0000 C   0  0
   -0.5167    0.3583    0.0000 C   0  0
   -1.2292   -0.0542    0.0000 C   0  0
   -1.2292    1.6083    0.0000 C   0  0
    0.9208    0.3583    0.0000 C   0  0
    0.9208    1.1833    0.0000 C   0  0
   -1.9458    0.3583    0.0000 C   0  0
    0.2083    1.5958    0.0000 C   0  0
    0.1958   -0.0542    0.0000 C   0  0
   -1.9417    1.1958    0.0000 C   0  0
    2.3583    1.1833    0.0000 C   0  0  2  0  0  0
    1.6292   -0.0667    0.0000 C   0  0  2  0  0  0
    1.6333    1.5958    0.0000 C   0  0
    2.2792   -1.3292    0.0000 C   0  0  2  0  0  0
    1.5458   -1.7000    0.0000 O   0  0
    2.3542    0.3458    0.0000 C   0  0
    2.9708   -1.7667    0.0000 C   0  0
    2.1917   -2.9667    0.0000 C   0  0  1  0  0  0
    2.9292   -2.5917    0.0000 C   0  0  1  0  0  0
    1.5083   -2.5167    0.0000 C   0  0  2  0  0  0
    2.3708    1.9958    0.0000 C   0  0
    2.3208   -0.5042    0.0000 O   0  0
   -1.2292    2.4250    0.0000 O   0  0
   -1.2292   -0.8792    0.0000 O   0  0
   -2.6583   -0.0542    0.0000 C   0  0
    1.6708    2.4250    0.0000 O   0  0
    0.2083    2.4125    0.0000 O   0  0
    0.1958   -0.8792    0.0000 O   0  0
    3.0583    0.7708    0.0000 O   0  0
    3.6167   -3.0417    0.0000 N   0  0
    2.1458   -3.7917    0.0000 O   0  0
   -2.6583    1.5958    0.0000 C   0  0
   -2.6583   -0.8792    0.0000 O   0  0
    3.0958    2.3958    0.0000 C   0  0
    3.7958    1.9708    0.0000 O   0  0
    0.7708   -2.8917    0.0000 C   0  0
   -3.3667    1.1833    0.0000 C   0  0
   -3.3792    0.3583    0.0000 C   0  0
   -3.3792   -1.2792    0.0000 C   0  0
    0.9208   -0.4667    0.0000 H   0  0
    4.3364   -2.6384    0.0000 C   0  0
    4.3470   -1.8135    0.0000 O   0  0
    5.0455   -3.0600    0.0000 C   0  0
    5.7652   -2.6568    0.0000 C   0  0
    6.4743   -3.0784    0.0000 C   0  0
    7.1940   -2.6751    0.0000 C   0  0
    7.9031   -3.0968    0.0000 C   0  0
    7.8925   -3.9217    0.0000 N   0  0
    7.1728   -4.3250    0.0000 C   0  0
    7.1622   -5.1499    0.0000 C   0  0
    6.4637   -3.9033    0.0000 O   0  0
    7.8713   -5.5716    0.0000 C   0  0
    7.8607   -6.3965    0.0000 C   0  0
    8.5698   -6.8182    0.0000 C   0  0
    8.7257   -7.6285    0.0000 C   0  0  2  0  0  0
    9.3765   -8.7963    0.0000 C   0  0
    9.4778   -7.9775    0.0000 S   0  0
    8.5664   -8.9528    0.0000 C   0  0  1  0  0  0
    8.1660   -8.2327    0.0000 C   0  0  2  0  0  0
    7.3573   -8.3909    0.0000 N   0  0
    7.2579   -9.2090    0.0000 C   0  0
    8.0052   -9.5561    0.0000 N   0  0
    7.7918   -7.5003    0.0000 H   0  0
    8.9366   -9.6957    0.0000 H   0  0
    6.5369   -9.6099    0.0000 O   0  0
 26 21  2  0
 27  8  1  0
 28  9  1  0
 11 29  1  6
 19 30  1  6
 18 31  1  6
 32 10  2  0
 33 25  1  0
 34 21  1  0
 35 34  1  0
 20 36  1  6
 37 32  1  0
 38 37  2  0
 39 33  1  0
 12 40  1  1
  9  5  2  0
  3  7  1  0
 12 16  1  0
 38 25  1  0
 20 18  1  0
 30 41  1  0
  2  1  2  0
 41 42  2  0
  3  2  1  0
 41 43  1  0
  4  1  1  0
 43 44  1  0
  5  6  1  0
 44 45  1  0
  6  8  2  0
 45 46  1  0
  7 10  1  0
 46 47  1  0
  8  1  1  0
 47 48  1  0
  9  2  1  0
 48 49  1  0
 10  4  1  0
 49 50  1  0
 11 13  1  0
 49 51  2  0
 12  5  1  0
 50 52  1  0
 13  6  1  0
 52 53  1  0
 14 22  1  1
 53 54  1  0
 15 14  1  0
 55 54  1  6
 55 59  1  0
 16 11  1  0
 17 14  1  0
 58 56  1  0
 56 57  1  0
 57 55  1  0
 58 59  1  0
 18 19  1  0
 19 17  1  0
 20 15  1  0
 21 11  1  0
 22 12  1  0
 59 60  1  0
 60 61  1  0
 61 62  1  0
 62 58  1  0
 23  4  2  0
 59 63  1  1
 24  3  2  0
 58 64  1  1
 25  7  2  0
 61 65  2  0
M  END