
  SciTegic05171617262D

 30 33  0  0  1  0            999 V2000
    3.6331   -3.6060    0.0000 C   0  0
    2.5951   -3.0039    0.0000 N   0  0
    2.5973   -1.5031    0.0000 C   0  0
    3.6375   -0.9049    0.0000 O   0  0
    1.2990   -0.7500    0.0000 C   0  0  1  0  0  0
    1.2990    0.7500    0.0000 C   0  0
    0.0000    1.5000    0.0000 C   0  0
   -1.2990    0.7500    0.0000 C   0  0
   -1.2990   -0.7500    0.0000 N   0  0
    0.0000   -1.5000    0.0000 C   0  0
   -2.5987   -1.5004    0.0000 C   0  0
   -3.8991   -0.7525    0.0000 C   0  0
   -5.1969   -1.5046    0.0000 C   0  0
   -5.1945   -3.0046    0.0000 C   0  0
   -6.4915   -3.7597    0.0000 N   0  0
   -6.4870   -5.2605    0.0000 C   0  0
   -7.7822   -6.0172    0.0000 N   0  0
   -7.7746   -7.5172    0.0000 C   0  0
   -6.4718   -8.2606    0.0000 C   0  0
   -6.4673   -9.7614    0.0000 C   0  0
   -5.4261  -10.3580    0.0000 N   0  0
   -7.5044  -10.3652    0.0000 O   0  0
   -5.1766   -7.5040    0.0000 C   0  0
   -3.8715   -8.2452    0.0000 N   0  0
   -2.5767   -7.4864    0.0000 C   0  0
   -1.1555   -7.5199    0.0000 C   0  0
   -1.9166   -6.2273    0.0000 C   0  0
   -5.1842   -6.0041    0.0000 N   0  0
   -3.8943   -3.7525    0.0000 C   0  0
   -2.5964   -3.0004    0.0000 C   0  0
  1  2  1  0
  2  3  1  0
  3  4  2  0
  5  3  1  6
  5  6  1  0
  6  7  1  0
  7  8  1  0
  8  9  1  0
  9 10  1  0
  5 10  1  0
  9 11  1  0
 11 12  2  0
 12 13  1  0
 13 14  2  0
 14 15  1  0
 15 16  1  0
 16 17  2  0
 17 18  1  0
 18 19  2  0
 19 20  1  0
 20 21  1  0
 20 22  2  0
 19 23  1  0
 23 24  1  0
 24 25  1  0
 25 26  1  0
 26 27  1  0
 25 27  1  0
 23 28  2  0
 16 28  1  0
 14 29  1  0
 29 30  2  0
 11 30  1  0
M  END