
          11280715382D 1   1.00000     0.00000     0

 30 32  0     1  0            999 V2000
    3.0792   -4.4000    0.0000 N   0  0  3  0  0  0           0  0  0
    3.8792   -4.1875    0.0000 C   0  0  0  0  0  0           0  0  0
    2.4250   -3.0542    0.0000 C   0  0  0  0  0  0           0  0  0
    2.4292   -3.8792    0.0000 C   0  0  0  0  0  0           0  0  0
    1.7000   -1.8167    0.0000 C   0  0  3  0  0  0           0  0  0
    4.2417   -3.4500    0.0000 C   0  0  1  0  0  0           0  0  0
    3.8792   -2.7042    0.0000 C   0  0  1  0  0  0           0  0  0
    1.7042   -2.6417    0.0000 C   0  0  0  0  0  0           0  0  0
    3.0667   -2.5292    0.0000 C   0  0  0  0  0  0           0  0  0
    2.8667   -5.1917    0.0000 C   0  0  0  0  0  0           0  0  0
    4.3875   -2.0542    0.0000 C   0  0  0  0  0  0           0  0  0
    4.4000   -4.8292    0.0000 O   0  0  0  0  0  0           0  0  0
    1.7000   -1.0667    0.0000 F   0  0  0  0  0  0           0  0  0
    2.3667   -1.2667    0.0000 F   0  0  0  0  0  0           0  0  0
    1.0292   -1.2750    0.0000 F   0  0  0  0  0  0           0  0  0
    4.0792   -1.2917    0.0000 C   0  0  0  0  0  0           0  0  0
    5.2042   -2.1750    0.0000 C   0  0  0  0  0  0           0  0  0
    3.4500   -5.7792    0.0000 C   0  0  0  0  0  0           0  0  0
    3.2292   -6.5750    0.0000 N   0  0  3  0  0  0           0  0  0
    5.4042   -0.7542    0.0000 C   0  0  0  0  0  0           0  0  0
    1.7042   -4.3000    0.0000 C   0  0  0  0  0  0           0  0  0
    5.7125   -1.5250    0.0000 C   0  0  0  0  0  0           0  0  0
    4.5792   -0.6417    0.0000 C   0  0  0  0  0  0           0  0  0
    0.9917   -3.0625    0.0000 C   0  0  0  0  0  0           0  0  0
    5.0667   -3.4542    0.0000 C   0  0  0  0  0  0           0  0  0
    5.9167   -0.1125    0.0000 O   0  0  0  0  0  0           0  0  0
    0.9917   -3.8875    0.0000 C   0  0  0  0  0  0           0  0  0
    2.4417   -6.7875    0.0000 C   0  0  0  0  0  0           0  0  0
    3.8167   -7.1542    0.0000 C   0  0  0  0  0  0           0  0  0
    5.6042    0.6583    0.0000 C   0  0  0  0  0  0           0  0  0
  2  1  1  0     0  0
  3  4  1  0     0  0
  4  1  1  0     0  0
  5  8  1  0     0  0
  6  2  1  0     0  0
  7  6  1  0     0  0
  8  3  2  0     0  0
  9  3  1  0     0  0
 10  1  1  0     0  0
  7 11  1  1     0  0
 12  2  2  0     0  0
 13  5  1  0     0  0
 14  5  1  0     0  0
 15  5  1  0     0  0
 16 11  1  0     0  0
 17 11  2  0     0  0
 18 10  1  0     0  0
 19 18  1  0     0  0
 20 22  2  0     0  0
 21  4  2  0     0  0
 22 17  1  0     0  0
 23 16  2  0     0  0
 24 27  2  0     0  0
  6 25  1  1     0  0
 26 20  1  0     0  0
 27 21  1  0     0  0
 28 19  1  0     0  0
 29 19  1  0     0  0
 30 26  1  0     0  0
  7  9  1  0     0  0
 24  8  1  0     0  0
 23 20  1  0     0  0
M  END