
  CDK    9/16/09,10:8

 35 37  0  0  0  0  0  0  0  0999 V2000
   -4.4542  -13.8625    0.0000 C   0  0  0  0  0  0  0  0  0  0  0  0
   -4.4542  -14.6875    0.0000 C   0  0  0  0  0  0  0  0  0  0  0  0
   -3.7421  -15.0958    0.0000 C   0  0  0  0  0  0  0  0  0  0  0  0
   -3.7421  -13.4458    0.0000 C   0  0  0  0  0  0  0  0  0  0  0  0
   -3.0301  -13.8625    0.0000 C   0  0  0  0  0  0  0  0  0  0  0  0
   -3.0336  -14.6875    0.0000 C   0  0  0  0  0  0  0  0  0  0  0  0
   -2.3249  -15.1007    0.0000 C   0  0  0  0  0  0  0  0  0  0  0  0
   -1.6081  -14.6935    0.0000 C   0  0  0  0  0  0  0  0  0  0  0  0
   -2.3295  -15.9257    0.0000 O   0  0  0  0  0  0  0  0  0  0  0  0
   -2.3179  -13.4507    0.0000 C   0  0  0  0  0  0  0  0  0  0  0  0
   -1.6022  -13.8695    0.0000 C   0  0  0  0  0  0  0  0  0  0  0  0
   -0.8884  -10.9622    0.0000 C   0  0  0  0  0  0  0  0  0  0  0  0
   -1.6031  -11.3813    0.0000 C   0  0  0  0  0  0  0  0  0  0  0  0
   -1.5943  -12.2140    0.0000 C   0  0  0  0  0  0  0  0  0  0  0  0
   -2.3171  -12.6239    0.0000 C   0  0  0  0  0  0  0  0  0  0  0  0
   -2.3250  -14.2750    0.0000 H   0  0  0  0  0  0  0  0  0  0  0  0
   -2.3209  -10.9746    0.0000 C   0  0  0  0  0  0  0  0  0  0  0  0
   -2.3276  -10.1496    0.0000 C   0  0  0  0  0  0  0  0  0  0  0  0
   -3.1361   -8.9259    0.0000 O   0  0  0  0  0  0  0  0  0  0  0  0
   -3.9444   -8.7659    0.0000 C   0  0  0  0  0  0  0  0  0  0  0  0
   -4.3511   -9.4814    0.0000 C   0  0  0  0  0  0  0  0  0  0  0  0
   -3.7941  -10.0854    0.0000 C   0  0  0  0  0  0  0  0  0  0  0  0
   -4.2861   -8.0085    0.0000 O   0  0  0  0  0  0  0  0  0  0  0  0
   -3.0375  -13.0375    0.0000 C   0  0  0  0  0  0  0  0  0  0  0  0
   -3.9567  -10.8942    0.0000 C   0  0  0  0  0  0  0  0  0  0  0  0
   -3.0417  -15.5083    0.0000 H   0  0  0  0  0  0  0  0  0  0  0  0
   -3.5333  -15.8917    0.0000 C   0  0  0  0  0  0  0  0  0  0  0  0
   -4.4625  -15.5042    0.0000 C   0  0  0  0  0  0  0  0  0  0  0  0
   -1.1958  -13.1500    0.0000 C   0  0  0  0  0  0  0  0  0  0  0  0
   -0.8917  -14.2792    0.0000 O   0  0  0  0  0  0  0  0  0  0  0  0
   -1.6165   -9.7313    0.0000 O   0  0  0  0  0  0  0  0  0  0  0  0
   -5.1763  -15.0871    0.0000 O   0  0  0  0  0  0  0  0  0  0  0  0
   -4.4691  -16.3347    0.0000 O   0  0  0  0  0  0  0  0  0  0  0  0
   -3.0454   -9.7429    0.0000 C   0  0  0  0  0  0  0  0  0  0  0  0
   -2.3309   -9.3304    0.0000 H   0  0  0  0  0  0  0  0  0  0  0  0
  6  7  1  0  0  0  0 
 13 17  2  0  0  0  0 
  7  8  1  0  0  0  0 
 17 18  1  0  0  0  0 
  8 11  1  0  0  0  0 
 34 18  1  0  0  0  0 
 34 19  1  0  0  0  0 
  3  6  1  0  0  0  0 
  7  9  1  6  0  0  0 
 10 11  1  0  0  0  0 
  5  4  1  0  0  0  0 
 19 20  1  0  0  0  0 
 20 21  1  0  0  0  0 
 21 22  2  0  0  0  0 
 22 34  1  0  0  0  0 
  5  6  1  0  0  0  0 
 20 23  2  0  0  0  0 
  5 24  1  1  0  0  0 
  1  2  1  0  0  0  0 
 22 25  1  0  0  0  0 
  1  4  1  0  0  0  0 
  6 26  1  6  0  0  0 
  2  3  1  0  0  0  0 
  3 27  1  1  0  0  0 
 10 15  1  0  0  0  0 
  3 28  1  0  0  0  0 
 12 13  1  0  0  0  0 
 11 29  1  0  0  0  0 
 13 14  1  0  0  0  0 
 11 30  1  6  0  0  0 
 14 15  1  0  0  0  0 
 18 31  1  1  0  0  0 
  5 10  1  0  0  0  0 
 10 16  1  6  0  0  0 
 28 32  1  0  0  0  0 
 28 33  2  0  0  0  0 
 34 35  1  1  0  0  0 
M  END