
  Mrv0541 05211314572D          

 88 89  0  0  0  0            999 V2000
    3.2151   -1.0313    0.0000 C   0  0  0  0  0  0  0  0  0  0  0  0
    3.2151   -0.2063    0.0000 N   0  0  0  0  0  0  0  0  0  0  0  0
    2.5006    0.2062    0.0000 C   0  0  0  0  0  0  0  0  0  0  0  0
    1.7862   -0.2063    0.0000 C   0  0  0  0  0  0  0  0  0  0  0  0
    1.0717    0.2063    0.0000 C   0  0  0  0  0  0  0  0  0  0  0  0
    0.3572   -0.2063    0.0000 C   0  0  0  0  0  0  0  0  0  0  0  0
   -0.3572    0.2063    0.0000 C   0  0  0  0  0  0  0  0  0  0  0  0
   -1.0717   -0.2063    0.0000 C   0  0  0  0  0  0  0  0  0  0  0  0
   -1.7862    0.2063    0.0000 C   0  0  0  0  0  0  0  0  0  0  0  0
   -2.5006   -0.2063    0.0000 C   0  0  0  0  0  0  0  0  0  0  0  0
   -3.2151    0.2063    0.0000 N   0  0  0  0  0  0  0  0  0  0  0  0
   -3.2151    1.0313    0.0000 C   0  0  0  0  0  0  0  0  0  0  0  0
   -3.9296   -0.2063    0.0000 C   0  0  0  0  0  0  0  0  0  0  0  0
   -4.6441    0.2063    0.0000 C   0  0  0  0  0  0  0  0  0  0  0  0
   -5.3585   -0.2063    0.0000 C   0  0  0  0  0  0  0  0  0  0  0  0
   -6.0730    0.2063    0.0000 C   0  0  0  0  0  0  0  0  0  0  0  0
   -6.7875   -0.2063    0.0000 C   0  0  0  0  0  0  0  0  0  0  0  0
   -7.5019    0.2063    0.0000 C   0  0  0  0  0  0  0  0  0  0  0  0
   -8.2164   -0.2063    0.0000 N   0  0  0  0  0  0  0  0  0  0  0  0
   -8.9309    0.2063    0.0000 C   0  0  0  0  0  0  0  0  0  0  0  0
   -9.6454   -0.2062    0.0000 C   0  0  0  0  0  0  0  0  0  0  0  0
   -9.6454   -1.0312    0.0000 O   0  0  0  0  0  0  0  0  0  0  0  0
  -10.3598    0.2063    0.0000 N   0  0  0  0  0  0  0  0  0  0  0  0
  -11.0415   -0.2585    0.0000 C   0  0  0  0  0  0  0  0  0  0  0  0
  -10.8579   -1.0628    0.0000 C   0  0  0  0  0  0  0  0  0  0  0  0
  -11.4627   -1.6239    0.0000 C   0  0  0  0  0  0  0  0  0  0  0  0
  -12.2510   -1.3808    0.0000 C   0  0  0  0  0  0  0  0  0  0  0  0
  -12.4346   -0.5765    0.0000 C   0  0  0  0  0  0  0  0  0  0  0  0
  -11.8298   -0.0153    0.0000 C   0  0  0  0  0  0  0  0  0  0  0  0
  -12.1312    0.7527    0.0000 N   0  0  0  0  0  0  0  0  0  0  0  0
  -11.7187    1.4671    0.0000 C   0  0  0  0  0  0  0  0  0  0  0  0
  -12.1835    2.1488    0.0000 O   0  0  0  0  0  0  0  0  0  0  0  0
  -10.9029    1.5901    0.0000 C   0  0  0  0  0  0  0  0  0  0  0  0
  -10.7194    2.3944    0.0000 C   0  0  0  0  0  0  0  0  0  0  0  0
   -9.9310    2.6376    0.0000 C   0  0  0  0  0  0  0  0  0  0  0  0
   -9.3262    2.0764    0.0000 C   0  0  0  0  0  0  0  0  0  0  0  0
   -9.5098    1.2721    0.0000 C   0  0  0  0  0  0  0  0  0  0  0  0
  -10.2982    1.0289    0.0000 C   0  0  0  0  0  0  0  0  0  0  0  0
    3.9296    0.2062    0.0000 C   0  0  0  0  0  0  0  0  0  0  0  0
    4.6441   -0.2063    0.0000 C   0  0  0  0  0  0  0  0  0  0  0  0
    5.3585    0.2062    0.0000 C   0  0  0  0  0  0  0  0  0  0  0  0
    6.0730   -0.2063    0.0000 C   0  0  0  0  0  0  0  0  0  0  0  0
    6.7875    0.2062    0.0000 C   0  0  0  0  0  0  0  0  0  0  0  0
    7.5019   -0.2063    0.0000 C   0  0  0  0  0  0  0  0  0  0  0  0
    8.2164    0.2062    0.0000 N   0  0  0  0  0  0  0  0  0  0  0  0
    8.9309   -0.2063    0.0000 C   0  0  0  0  0  0  0  0  0  0  0  0
    9.6454    0.2062    0.0000 C   0  0  0  0  0  0  0  0  0  0  0  0
    9.6454    1.0312    0.0000 O   0  0  0  0  0  0  0  0  0  0  0  0
   10.3598   -0.2063    0.0000 N   0  0  0  0  0  0  0  0  0  0  0  0
   11.0415    0.2585    0.0000 C   0  0  0  0  0  0  0  0  0  0  0  0
   10.8579    1.0628    0.0000 C   0  0  0  0  0  0  0  0  0  0  0  0
   11.4627    1.6239    0.0000 C   0  0  0  0  0  0  0  0  0  0  0  0
   12.2510    1.3808    0.0000 C   0  0  0  0  0  0  0  0  0  0  0  0
   12.4346    0.5765    0.0000 C   0  0  0  0  0  0  0  0  0  0  0  0
   11.8298    0.0153    0.0000 C   0  0  0  0  0  0  0  0  0  0  0  0
   12.1312   -0.7527    0.0000 N   0  0  0  0  0  0  0  0  0  0  0  0
   11.7187   -1.4671    0.0000 C   0  0  0  0  0  0  0  0  0  0  0  0
   12.1835   -2.1488    0.0000 O   0  0  0  0  0  0  0  0  0  0  0  0
   10.9029   -1.5901    0.0000 C   0  0  0  0  0  0  0  0  0  0  0  0
   10.7194   -2.3944    0.0000 C   0  0  0  0  0  0  0  0  0  0  0  0
    9.9310   -2.6376    0.0000 C   0  0  0  0  0  0  0  0  0  0  0  0
    9.3262   -2.0764    0.0000 C   0  0  0  0  0  0  0  0  0  0  0  0
    9.5098   -1.2721    0.0000 C   0  0  0  0  0  0  0  0  0  0  0  0
   10.2982   -1.0289    0.0000 C   0  0  0  0  0  0  0  0  0  0  0  0
   15.3810    1.0717    0.0000 O   0  0  0  0  0  0  0  0  0  0  0  0
   15.7935    0.3572    0.0000 C   0  0  0  0  0  0  0  0  0  0  0  0
   16.6185    0.3572    0.0000 O   0  0  0  0  0  0  0  0  0  0  0  0
   15.3810   -0.3572    0.0000 C   0  0  0  0  0  0  0  0  0  0  0  0
   15.7935   -1.0717    0.0000 O   0  0  0  0  0  0  0  0  0  0  0  0
   14.5560   -0.3572    0.0000 O   0  0  0  0  0  0  0  0  0  0  0  0
   19.5649    1.0717    0.0000 O   0  0  0  0  0  0  0  0  0  0  0  0
   19.9774    0.3572    0.0000 C   0  0  0  0  0  0  0  0  0  0  0  0
   20.8024    0.3572    0.0000 O   0  0  0  0  0  0  0  0  0  0  0  0
   19.5649   -0.3572    0.0000 C   0  0  0  0  0  0  0  0  0  0  0  0
   19.9774   -1.0717    0.0000 O   0  0  0  0  0  0  0  0  0  0  0  0
   18.7399   -0.3572    0.0000 O   0  0  0  0  0  0  0  0  0  0  0  0
   -0.2063   -4.2876    0.0000 O   0  0  0  0  0  0  0  0  0  0  0  0
    0.2062   -5.0020    0.0000 C   0  0  0  0  0  0  0  0  0  0  0  0
    1.0313   -5.0020    0.0000 O   0  0  0  0  0  0  0  0  0  0  0  0
   -0.2063   -5.7165    0.0000 C   0  0  0  0  0  0  0  0  0  0  0  0
    0.2063   -6.4310    0.0000 O   0  0  0  0  0  0  0  0  0  0  0  0
   -1.0313   -5.7165    0.0000 O   0  0  0  0  0  0  0  0  0  0  0  0
    3.9777   -4.2876    0.0000 O   0  0  0  0  0  0  0  0  0  0  0  0
    4.3902   -5.0020    0.0000 C   0  0  0  0  0  0  0  0  0  0  0  0
    5.2152   -5.0020    0.0000 O   0  0  0  0  0  0  0  0  0  0  0  0
    3.9777   -5.7165    0.0000 C   0  0  0  0  0  0  0  0  0  0  0  0
    4.3902   -6.4310    0.0000 O   0  0  0  0  0  0  0  0  0  0  0  0
    3.1527   -5.7165    0.0000 O   0  0  0  0  0  0  0  0  0  0  0  0
  1  2  1  0  0  0  0
  2  3  1  0  0  0  0
  3  4  1  0  0  0  0
  4  5  1  0  0  0  0
  5  6  1  0  0  0  0
  6  7  1  0  0  0  0
  7  8  1  0  0  0  0
  8  9  1  0  0  0  0
  9 10  1  0  0  0  0
 10 11  1  0  0  0  0
 11 12  1  0  0  0  0
 11 13  1  0  0  0  0
 13 14  1  0  0  0  0
 14 15  1  0  0  0  0
 15 16  1  0  0  0  0
 16 17  1  0  0  0  0
 17 18  1  0  0  0  0
 18 19  1  0  0  0  0
 19 20  1  0  0  0  0
 20 21  1  0  0  0  0
 21 22  2  0  0  0  0
 21 23  1  0  0  0  0
 23 24  1  0  0  0  0
 24 25  2  0  0  0  0
 25 26  1  0  0  0  0
 26 27  2  0  0  0  0
 27 28  1  0  0  0  0
 28 29  2  0  0  0  0
 29 24  1  0  0  0  0
 29 30  1  0  0  0  0
 30 31  1  0  0  0  0
 31 32  2  0  0  0  0
 31 33  1  0  0  0  0
 33 34  2  0  0  0  0
 34 35  1  0  0  0  0
 35 36  2  0  0  0  0
 36 37  1  0  0  0  0
 37 38  2  0  0  0  0
 38 23  1  0  0  0  0
 38 33  1  0  0  0  0
  2 39  1  0  0  0  0
 39 40  1  0  0  0  0
 40 41  1  0  0  0  0
 41 42  1  0  0  0  0
 42 43  1  0  0  0  0
 43 44  1  0  0  0  0
 44 45  1  0  0  0  0
 45 46  1  0  0  0  0
 46 47  1  0  0  0  0
 47 48  2  0  0  0  0
 47 49  1  0  0  0  0
 49 50  1  0  0  0  0
 50 51  2  0  0  0  0
 51 52  1  0  0  0  0
 52 53  2  0  0  0  0
 53 54  1  0  0  0  0
 54 55  2  0  0  0  0
 55 50  1  0  0  0  0
 55 56  1  0  0  0  0
 56 57  1  0  0  0  0
 57 58  2  0  0  0  0
 57 59  1  0  0  0  0
 59 60  2  0  0  0  0
 60 61  1  0  0  0  0
 61 62  2  0  0  0  0
 62 63  1  0  0  0  0
 63 64  2  0  0  0  0
 64 49  1  0  0  0  0
 64 59  1  0  0  0  0
 65 66  1  0  0  0  0
 66 67  2  0  0  0  0
 66 68  1  0  0  0  0
 68 69  2  0  0  0  0
 68 70  1  0  0  0  0
 71 72  1  0  0  0  0
 72 73  2  0  0  0  0
 72 74  1  0  0  0  0
 74 75  2  0  0  0  0
 74 76  1  0  0  0  0
 77 78  1  0  0  0  0
 78 79  2  0  0  0  0
 78 80  1  0  0  0  0
 80 81  2  0  0  0  0
 80 82  1  0  0  0  0
 83 84  1  0  0  0  0
 84 85  2  0  0  0  0
 84 86  1  0  0  0  0
 86 87  2  0  0  0  0
 86 88  1  0  0  0  0
M  END