
          11280714522D 1   1.00000     0.00000     0

 12 12  0     0  0            999 V2000
    4.5500   -2.9875    0.0000 C   0  0  0  0  0  0           0  0  0
    4.1250   -2.2792    0.0000 C   0  0  3  0  0  0           0  0  0
    4.0042   -3.6042    0.0000 O   0  0  0  0  0  0           0  0  0
    5.3667   -3.0625    0.0000 O   0  0  0  0  0  0           0  0  0
    3.9042   -1.4792    0.0000 C   0  0  3  0  0  0           0  0  0
    4.8375   -1.8625    0.0000 C   0  0  3  0  0  0           0  0  0
    3.2417   -3.2792    0.0000 C   0  0  0  0  0  0           0  0  0
    3.3167   -2.4625    0.0000 C   0  0  0  0  0  0           0  0  0
    4.8292   -1.0375    0.0000 C   0  0  0  0  0  0           0  0  0
    5.5542   -2.2667    0.0000 C   0  0  0  0  0  0           0  0  0
    4.4875   -0.8917    0.0000 C   0  0  0  0  0  0           0  0  0
    3.1042   -1.2667    0.0000 C   0  0  0  0  0  0           0  0  0
  2  1  1  0     0  0
  3  1  1  0     0  0
  4  1  2  0     0  0
  5  2  1  0     0  0
  6  2  1  0     0  0
  7  3  1  0     0  0
  8  2  1  0     0  0
  9  6  1  0     0  0
 10  6  1  0     0  0
 11  5  1  0     0  0
 12  5  1  0     0  0
  7  8  1  0     0  0
M  END