
  SciTegic10301317112D

 84 89  0  0  1  0            999 V2000
    2.9880   -4.2869    0.0000 N   0  0
    3.6821   -4.7331    0.0000 C   0  0
    9.1159   -4.3629    0.0000 N   0  0
    4.4158   -4.3629    0.0000 C   0  0  1  0  0  0
    7.9656   -5.5131    0.0000 C   0  0
    4.9017   -5.0306    0.0000 N   0  0
    7.1790   -5.7644    0.0000 N   0  0
    6.3560   -0.5586    0.0000 C   0  0
    7.1790   -0.5586    0.0000 N   0  0
    9.1159   -1.9666    0.0000 N   0  0
    9.3703   -3.5730    0.0000 C   0  0
    5.5660   -5.5131    0.0000 C   0  0
    8.6300   -1.2990    0.0000 C   0  0
    2.0063   -5.3776    0.0000 C   0  0
   12.4575    0.0859    0.0000 N   0  3
    8.6300   -5.0306    0.0000 C   0  0  2  0  0  0
    6.3560   -5.7644    0.0000 C   0  0  2  0  0  0
    5.5660   -0.8131    0.0000 C   0  0
    2.2211   -4.5844    0.0000 C   0  0  2  0  0  0
    9.3703   -2.7500    0.0000 C   0  0  2  0  0  0
    7.9656   -0.8164    0.0000 C   0  0  2  0  0  0
    1.5799   -6.9741    0.0000 C   0  0
    2.5913   -5.9627    0.0000 N   0  0
    1.3684   -7.7673    0.0000 N   0  0
    6.2271   -6.5840    0.0000 C   0  0
   13.2805    0.0760    0.0000 N   0  5
    0.5685   -7.9821    0.0000 C   0  0  1  0  0  0
    0.3570   -8.7787    0.0000 C   0  0
    5.4570   -6.8749    0.0000 C   0  0
   11.6345    0.0958    0.0000 N   0  0
    2.3732   -6.7559    0.0000 C   0  0  1  0  0  0
    4.1646   -2.7500    0.0000 S   0  0
    4.4158   -1.9666    0.0000 S   0  0
    3.6391   -5.5561    0.0000 O   0  0
    8.3391   -6.2502    0.0000 O   0  0
    1.2097   -5.5925    0.0000 O   0  0
    6.2271    0.2545    0.0000 O   0  0
   10.1868   -3.7019    0.0000 O   0  0
    9.2150   -0.7173    0.0000 O   0  0
    5.1958   -6.2502    0.0000 O   0  0
    4.1646   -3.5730    0.0000 C   0  0
    8.3391   -0.0727    0.0000 C   0  0
   10.1868   -2.6211    0.0000 C   0  0
    0.9949   -6.3890    0.0000 O   0  0
   -0.0165   -7.4004    0.0000 C   0  0
   -0.4429   -8.9935    0.0000 O   0  0
    5.3281   -7.6946    0.0000 O   0  0
    4.9017   -1.2990    0.0000 C   0  0
    0.9354   -9.3638    0.0000 N   0  0
    9.2150   -5.6123    0.0000 C   0  0
    2.9483   -3.4639    0.0000 C   0  0
   10.8114    0.0496    0.0000 C   0  0
    4.8124   -6.3593    0.0000 N   0  0
    9.1621   -0.0331    0.0000 C   0  0
   -0.8098   -7.6153    0.0000 C   0  0
   -2.3996   -8.0416    0.0000 C   0  0
   10.7024   -3.2656    0.0000 C   0  0
    5.7809   -0.0132    0.0000 C   0  0
    4.7430   -0.8561    0.0000 C   0  0
   10.4347   -0.6875    0.0000 C   0  0
   10.3619    0.7403    0.0000 C   0  0
    9.5323    0.7007    0.0000 C   0  0
   -1.0180   -8.4118    0.0000 C   0  0
    9.6116   -0.7272    0.0000 C   0  0
   -1.3948   -7.0302    0.0000 C   0  0
    3.6986  -10.1041    0.0000 N   0  0
   -1.8112   -8.6267    0.0000 C   0  0
   -2.1880   -7.2418    0.0000 C   0  0
    1.6989   -3.9399    0.0000 C   0  0
   -3.1994   -8.2532    0.0000 O   0  0
    2.1517   -3.2458    0.0000 C   0  0
    2.9582   -7.3410    0.0000 C   0  0
    3.1169   -9.5191    0.0000 C   0  0
    8.9969   -6.4089    0.0000 C   0  0
   10.0083   -5.3975    0.0000 C   0  0
   10.4049   -4.0357    0.0000 C   0  0
   11.5155   -3.1367    0.0000 C   0  0
    2.7467   -8.1408    0.0000 C   0  0
    3.3317   -8.7192    0.0000 C   0  0
    4.4456   -0.0892    0.0000 C   0  0
    5.0868    0.4330    0.0000 C   0  0
   12.0377   -3.7779    0.0000 C   0  0
   10.9304   -4.6736    0.0000 C   0  0
   11.7435   -4.5447    0.0000 C   0  0
  2  1  1  0
  3 16  1  0
  4  2  1  6
  5  7  1  0
  6  4  1  0
  7 17  1  0
  8 18  1  0
  9  8  1  0
 10 13  1  0
 11  3  1  0
 12  6  1  0
 13 21  1  0
 19 14  1  6
 15 30  2  0
 16  5  1  0
 17 12  1  0
 18 48  1  0
 19  1  1  0
 20 11  1  0
 21  9  1  0
 22 31  1  0
 23 14  1  0
 24 22  1  0
 17 25  1  1
 26 15  2  0
 27 24  1  0
 28 27  1  0
 29 25  1  0
 30 52  1  0
 31 23  1  0
 32 41  1  0
 33 32  1  0
 34  2  2  0
 35  5  2  0
 36 14  2  0
 37  8  2  0
 38 11  2  0
 39 13  2  0
 40 12  2  0
 41  4  1  0
 21 42  1  1
 20 43  1  1
 44 22  2  0
 27 45  1  1
 46 28  2  0
 47 29  2  0
 48 33  1  0
 49 28  1  0
 16 50  1  1
 51  1  1  0
 52 60  2  0
 53 29  1  0
 54 42  1  0
 55 45  1  0
 56 68  2  0
 57 43  1  0
 58 18  1  0
 59 18  1  0
 60 64  1  0
 61 62  2  0
 62 54  1  0
 63 55  1  0
 64 54  2  0
 65 55  2  0
 66 73  1  0
 67 63  2  0
 68 65  1  0
 69 19  1  0
 70 56  1  0
 71 51  1  0
 31 72  1  1
 73 79  1  0
 74 50  1  0
 75 50  1  0
 76 57  2  0
 77 57  1  0
 78 72  1  0
 79 78  1  0
 80 59  1  0
 81 58  1  0
 82 77  2  0
 83 76  1  0
 84 82  1  0
 71 69  1  0
 81 80  1  0
 67 56  1  0
 10 20  1  0
 61 52  1  0
 84 83  2  0
M  CHG  2  15   1  26  -1
M  END