
  CDK    9/16/09,9:46

 25 28  0  0  0  0  0  0  0  0999 V2000
    3.7101  -13.8375    0.0000 C   0  0  0  0  0  0  0  0  0  0  0  0
    3.7101  -14.6625    0.0000 C   0  0  0  0  0  0  0  0  0  0  0  0
    4.4206  -15.0727    0.0000 C   0  0  0  0  0  0  0  0  0  0  0  0
    4.4206  -13.4227    0.0000 C   0  0  0  0  0  0  0  0  0  0  0  0
    5.1356  -13.8375    0.0000 C   0  0  0  0  0  0  0  0  0  0  0  0
    5.1366  -14.6625    0.0000 C   0  0  0  0  0  0  0  0  0  0  0  0
    5.8476  -15.0717    0.0000 C   0  0  0  0  0  0  0  0  0  0  0  0
    6.5622  -14.6607    0.0000 C   0  0  0  0  0  0  0  0  0  0  0  0
    5.8456  -13.4218    0.0000 C   0  0  0  0  0  0  0  0  0  0  0  0
    6.5615  -13.8387    0.0000 C   0  0  0  0  0  0  0  0  0  0  0  0
    6.5660  -12.1848    0.0000 C   0  0  0  0  0  0  0  0  0  0  0  0
    5.8447  -12.5956    0.0000 C   0  0  0  0  0  0  0  0  0  0  0  0
    7.2819  -12.6017    0.0000 C   0  0  0  0  0  0  0  0  0  0  0  0
    7.2740  -13.4271    0.0000 C   0  0  0  0  0  0  0  0  0  0  0  0
    8.0568  -13.6897    0.0000 C   0  0  0  0  0  0  0  0  0  0  0  0
    8.5484  -13.0264    0.0000 C   0  0  0  0  0  0  0  0  0  0  0  0
    8.0694  -12.3540    0.0000 C   0  0  0  0  0  0  0  0  0  0  0  0
    2.9995  -15.0727    0.0000 O   0  0  0  0  0  0  0  0  0  0  0  0
    5.1275  -13.0171    0.0000 C   0  0  0  0  0  0  0  0  0  0  0  0
    5.8386  -14.2386    0.0000 H   0  0  0  0  0  0  0  0  0  0  0  0
    6.5542  -13.0171    0.0000 H   0  0  0  0  0  0  0  0  0  0  0  0
    7.2652  -14.2431    0.0000 H   0  0  0  0  0  0  0  0  0  0  0  0
    7.2743  -11.7774    0.0000 C   0  0  0  0  0  0  0  0  0  0  0  0
    8.3303  -11.5763    0.0000 O   0  0  0  0  0  0  0  0  0  0  0  0
    7.2725  -15.0711    0.0000 C   0  0  0  0  0  0  0  0  0  0  0  0
 10 14  1  0  0  0  0 
 13 11  1  0  0  0  0 
 11 12  1  0  0  0  0 
 13 14  1  0  0  0  0 
  1  2  1  0  0  0  0 
  1  4  1  0  0  0  0 
  2  3  1  0  0  0  0 
  5  9  1  0  0  0  0 
  6  7  1  0  0  0  0 
 14 15  1  0  0  0  0 
 15 16  1  0  0  0  0 
 16 17  1  0  0  0  0 
 17 13  1  0  0  0  0 
  7  8  1  0  0  0  0 
  2 18  2  0  0  0  0 
  8 10  1  0  0  0  0 
  5 19  1  1  0  0  0 
  9 10  1  0  0  0  0 
  9 20  1  6  0  0  0 
  3  6  2  0  0  0  0 
 10 21  1  1  0  0  0 
  5  4  1  0  0  0  0 
 14 22  1  6  0  0  0 
  5  6  1  0  0  0  0 
 13 23  1  1  0  0  0 
 17 24  1  1  0  0  0 
  9 12  1  0  0  0  0 
  8 25  1  6  0  0  0 
M  END