
          11280715452D 1   1.00000     0.00000     0

 22 22  0     1  0            999 V2000
    4.3625   -2.9000    0.0000 C   0  0  0  0  0  0           0  0  0
    5.0792   -2.4875    0.0000 N   0  0  3  0  0  0           0  0  0
    3.6500   -2.4875    0.0000 C   0  0  2  0  0  0           0  0  0
    4.3625   -0.4250    0.0000 P   0  0  3  0  0  0           0  0  0
    5.8292   -2.8167    0.0000 C   0  0  2  0  0  0           0  0  0
    3.6500   -1.6625    0.0000 C   0  0  2  0  0  0           0  0  0
    2.9375   -2.9000    0.0000 N   0  0  0  0  0  0           0  0  0
    6.0042   -3.6292    0.0000 C   0  0  0  0  0  0           0  0  0
    4.3625   -1.2500    0.0000 O   0  0  0  0  0  0           0  0  0
    2.2167   -2.4875    0.0000 C   0  0  0  0  0  0           0  0  0
    4.3625   -3.7250    0.0000 O   0  0  0  0  0  0           0  0  0
    3.5375   -0.4167    0.0000 O   0  0  0  0  0  0           0  0  0
    6.3792   -2.2042    0.0000 C   0  0  0  0  0  0           0  0  0
    5.9667   -1.4917    0.0000 C   0  0  0  0  0  0           0  0  0
    5.3875   -4.1792    0.0000 O   0  0  0  0  0  0           0  0  0
    2.2167   -1.6625    0.0000 O   0  0  0  0  0  0           0  0  0
    5.1625   -1.6625    0.0000 C   0  0  0  0  0  0           0  0  0
    5.1875   -0.4167    0.0000 O   0  0  0  0  0  0           0  0  0
    4.3542    0.4083    0.0000 O   0  0  0  0  0  0           0  0  0
    6.7875   -3.8792    0.0000 N   0  0  0  0  0  0           0  0  0
    2.9375   -1.2500    0.0000 C   0  0  0  0  0  0           0  0  0
    1.5042   -2.9000    0.0000 C   0  0  0  0  0  0           0  0  0
  2  1  1  0     0  0
  3  1  1  1     0  0
  4  9  1  0     0  0
  5  2  1  0     0  0
  6  3  1  0     0  0
  7  3  1  0     0  0
  5  8  1  1     0  0
  6  9  1  1     0  0
 10  7  1  0     0  0
 11  1  2  0     0  0
 12  4  2  0     0  0
 13  5  1  0     0  0
 14 17  1  0     0  0
 15  8  2  0     0  0
 16 10  2  0     0  0
 17  2  1  0     0  0
 18  4  1  0     0  0
 19  4  1  0     0  0
 20  8  1  0     0  0
 21  6  1  0     0  0
 22 10  1  0     0  0
 14 13  2  0     0  0
M  END