
          11280714522D 1   1.00000     0.00000     0

 52 56  0     0  0            999 V2000
    3.8542   -1.7125    0.0000 N   0  0  0  0  0  0           0  0  0
    4.2167   -0.9750    0.0000 C   0  0  3  0  0  0           0  0  0
    3.0542   -0.0417    0.0000 N   0  0  3  0  0  0           0  0  0
    3.0542   -1.8917    0.0000 C   0  0  0  0  0  0           0  0  0
    3.8542   -0.2292    0.0000 C   0  0  0  0  0  0           0  0  0
   12.3417   -6.2375    0.0000 C   0  0  0  0  0  0           0  0  0
    2.4167   -1.3792    0.0000 C   0  0  0  0  0  0           0  0  0
    5.0417   -0.9792    0.0000 N   0  0  0  0  0  0           0  0  0
   13.1667   -6.3417    0.0000 N   0  0  0  0  0  0           0  0  0
    2.4167   -0.5542    0.0000 C   0  0  0  0  0  0           0  0  0
   11.7667   -6.8292    0.0000 N   0  0  0  0  0  0           0  0  0
    5.4500   -1.7000    0.0000 C   0  0  0  0  0  0           0  0  0
   13.6625   -5.6792    0.0000 C   0  0  0  0  0  0           0  0  0
   11.9667   -5.5167    0.0000 S   0  0  0  0  0  0           0  0  0
   11.0292   -6.4667    0.0000 C   0  0  0  0  0  0           0  0  0
    2.9292   -2.7125    0.0000 C   0  0  0  0  0  0           0  0  0
   11.1542   -5.6500    0.0000 C   0  0  0  0  0  0           0  0  0
    6.2750   -1.7042    0.0000 N   0  0  0  0  0  0           0  0  0
    5.5125   -4.7792    0.0000 C   0  0  0  0  0  0           0  0  0
    6.7917   -5.8167    0.0000 C   0  0  0  0  0  0           0  0  0
    4.3667    0.4333    0.0000 O   0  0  0  0  0  0           0  0  0
    5.0292   -2.4125    0.0000 O   0  0  0  0  0  0           0  0  0
    5.3792   -5.6000    0.0000 N   0  0  0  0  0  0           0  0  0
    3.5792   -3.2292    0.0000 C   0  0  0  0  0  0           0  0  0
    6.6875   -2.4167    0.0000 C   0  0  0  0  0  0           0  0  0
    6.2792   -4.4792    0.0000 O   0  0  0  0  0  0           0  0  0
    6.9250   -5.0000    0.0000 O   0  0  0  0  0  0           0  0  0
   13.3292   -4.9292    0.0000 N   0  0  0  0  0  0           0  0  0
   14.4792   -5.7792    0.0000 N   0  0  0  0  0  0           0  0  0
    6.0250   -6.1167    0.0000 C   0  0  0  0  0  0           0  0  0
    7.4375   -6.3292    0.0000 N   0  0  0  0  0  0           0  0  0
    4.1000   -4.5667    0.0000 O   0  0  0  0  0  0           0  0  0
    2.8750    0.7708    0.0000 C   0  0  0  0  0  0           0  0  0
    4.8667   -4.2667    0.0000 C   0  0  0  0  0  0           0  0  0
    3.4542   -4.0417    0.0000 C   0  0  0  0  0  0           0  0  0
    7.5167   -2.4167    0.0000 C   0  0  0  0  0  0           0  0  0
    1.7042   -1.7917    0.0000 C   0  0  0  0  0  0           0  0  0
    9.6167   -6.2500    0.0000 S   0  0  0  0  0  0           0  0  0
   10.2542   -6.7667    0.0000 C   0  0  0  0  0  0           0  0  0
    1.7042   -0.1417    0.0000 C   0  0  0  0  0  0           0  0  0
    7.9292   -3.1292    0.0000 C   0  0  0  0  0  0           0  0  0
    2.1667   -3.0167    0.0000 C   0  0  0  0  0  0           0  0  0
    2.0417   -3.8292    0.0000 C   0  0  0  0  0  0           0  0  0
    6.6875   -3.8417    0.0000 C   0  0  0  0  0  0           0  0  0
    6.2750   -3.1292    0.0000 C   0  0  0  0  0  0           0  0  0
    8.2042   -6.0292    0.0000 C   0  0  0  0  0  0           0  0  0
    2.6917   -4.3417    0.0000 C   0  0  0  0  0  0           0  0  0
    7.5167   -3.8417    0.0000 C   0  0  0  0  0  0           0  0  0
    8.8417   -6.5500    0.0000 C   0  0  0  0  0  0           0  0  0
    8.7542   -3.1292    0.0000 C   0  0  0  0  0  0           0  0  0
    0.9875   -1.3792    0.0000 C   0  0  0  0  0  0           0  0  0
    0.9875   -0.5542    0.0000 C   0  0  0  0  0  0           0  0  0
  2  1  1  0     0  0
  3  5  1  0     0  0
  4  1  2  0     0  0
  5  2  1  0     0  0
  6 11  2  0     0  0
  7  4  1  0     0  0
  8  2  1  0     0  0
  9  6  1  0     0  0
 10  7  1  0     0  0
 11 15  1  0     0  0
 12  8  1  0     0  0
 13  9  2  0     0  0
 14 17  1  0     0  0
 15 39  1  0     0  0
 16  4  1  0     0  0
 17 15  2  0     0  0
 18 12  1  0     0  0
 19 34  1  0     0  0
 20 30  1  0     0  0
 21  5  2  0     0  0
 22 12  2  0     0  0
 23 19  1  0     0  0
 24 16  1  0     0  0
 25 18  1  0     0  0
 26 19  2  0     0  0
 27 20  2  0     0  0
 28 13  1  0     0  0
 29 13  1  0     0  0
 30 23  1  0     0  0
 31 20  1  0     0  0
 32 35  1  0     0  0
 33  3  1  0     0  0
 34 32  1  0     0  0
 35 24  2  0     0  0
 36 25  1  0     0  0
 37  7  2  0     0  0
 38 49  1  0     0  0
 39 38  1  0     0  0
 40 10  2  0     0  0
 41 36  2  0     0  0
 42 16  2  0     0  0
 43 42  1  0     0  0
 44 45  1  0     0  0
 45 25  2  0     0  0
 46 31  1  0     0  0
 47 43  2  0     0  0
 48 44  2  0     0  0
 49 46  1  0     0  0
 50 41  1  0     0  0
 51 37  1  0     0  0
 52 51  2  0     0  0
  3 10  1  0     0  0
 47 35  1  0     0  0
 52 40  1  0     0  0
 41 48  1  0     0  0
  6 14  1  0     0  0
M  END