
  SciTegic09171211542D

 15 16  0  0  0  0            999 V2000
   -3.9645  -13.9766    0.0000 C   0  0
   -3.9656  -14.8024    0.0000 C   0  0
   -3.2522  -15.2145    0.0000 C   0  0
   -3.2540  -13.5647    0.0000 C   0  0
   -2.5400  -13.9730    0.0000 C   0  0
   -2.5351  -14.8024    0.0000 C   0  0
   -1.7449  -15.0541    0.0000 N   0  0
   -1.2612  -14.3802    0.0000 C   0  0
   -1.7528  -13.7122    0.0000 S   0  0
   -0.4378  -14.3753    0.0000 N   0  0
   -0.0220  -15.0861    0.0000 C   0  0
   -4.6776  -13.5651    0.0000 N   0  0
   -5.3906  -13.9770    0.0000 C   0  0
   -6.1056  -13.5654    0.0000 C   0  0
   -5.3904  -14.8004    0.0000 O   0  0
  5  4  2  0
  6  7  1  0
  7  8  2  0
  8  9  1  0
  9  5  1  0
  4  1  1  0
  8 10  1  0
  5  6  1  0
 10 11  1  0
  1 12  1  0
  2  3  1  0
 12 13  1  0
  3  6  2  0
 13 14  1  0
  1  2  2  0
 13 15  2  0
M  END