
  SciTegic12011114592D

 20 22  0  0  0  0            999 V2000
    9.7179    1.2951    0.0000 C   0  0
    9.7167    0.4682    0.0000 C   0  0
   10.4311    0.0556    0.0000 C   0  0
   10.4293    1.7076    0.0000 C   0  0
   11.1442    1.2987    0.0000 C   0  0
   11.1430    0.4661    0.0000 C   0  0
   11.8595    0.0512    0.0000 C   0  0
   12.5818    0.4641    0.0000 C   0  0
   12.5830    1.2966    0.0000 C   0  0
   11.8619    1.7163    0.0000 O   0  0
   11.8572   -0.7733    0.0000 O   0  0
   13.2963    1.7046    0.0000 C   0  0
   14.0097    1.2888    0.0000 C   0  0
   14.7242    1.6987    0.0000 C   0  0
   14.7266    2.5241    0.0000 C   0  0
   14.0086    2.9380    0.0000 C   0  0
   13.2970    2.5257    0.0000 C   0  0
   10.4308   -0.7689    0.0000 O   0  0
    9.0037    1.7072    0.0000 O   0  0
   15.4412    2.9356    0.0000 I   0  0
  8  9  2  0
  9 10  1  0
  5  6  1  0
  7 11  2  0
  2  3  1  0
 12 13  2  0
  3  6  2  0
 13 14  1  0
  1  2  2  0
 14 15  2  0
  5  4  2  0
 15 16  1  0
  4  1  1  0
 16 17  2  0
 17 12  1  0
  9 12  1  0
  5 10  1  0
  3 18  1  0
  6  7  1  0
  1 19  1  0
  7  8  1  0
 15 20  1  0
M  END