
          11280715362D 1   1.00000     0.00000     0

 30 34  0     0  0            999 V2000
    0.3250   -5.7542    0.0000 N   0  0  3  0  0  0           0  0  0
    0.6000   -4.9750    0.0000 C   0  0  0  0  0  0           0  0  0
    0.9792   -6.2625    0.0000 N   0  0  3  0  0  0           0  0  0
   -0.4958   -5.7417    0.0000 N   0  0  0  0  0  0           0  0  0
    1.4292   -4.9917    0.0000 C   0  0  0  0  0  0           0  0  0
   -0.0625   -4.4792    0.0000 N   0  0  0  0  0  0           0  0  0
    1.6667   -5.7917    0.0000 C   0  0  0  0  0  0           0  0  0
    4.5250   -7.4917    0.0000 C   0  0  0  0  0  0           0  0  0
    4.0792   -6.2375    0.0000 N   0  0  0  0  0  0           0  0  0
    3.8500   -7.0250    0.0000 N   0  0  0  0  0  0           0  0  0
    4.9042   -6.2125    0.0000 N   0  0  0  0  0  0           0  0  0
   -0.7375   -4.9542    0.0000 C   0  0  0  0  0  0           0  0  0
    5.1792   -6.9917    0.0000 N   0  0  0  0  0  0           0  0  0
    4.5292   -8.3167    0.0000 C   0  0  0  0  0  0           0  0  0
    3.8250   -8.7375    0.0000 C   0  0  0  0  0  0           0  0  0
    0.9667   -7.0875    0.0000 C   0  0  0  0  0  0           0  0  0
    3.1042   -8.3250    0.0000 C   0  0  0  0  0  0           0  0  0
    2.3917   -8.7375    0.0000 C   0  0  0  0  0  0           0  0  0
    3.1042   -7.4917    0.0000 C   0  0  0  0  0  0           0  0  0
    1.6792   -7.5000    0.0000 C   0  0  0  0  0  0           0  0  0
    1.9292   -4.3417    0.0000 C   0  0  0  0  0  0           0  0  0
    1.6792   -8.3250    0.0000 C   0  0  0  0  0  0           0  0  0
    2.3917   -7.0792    0.0000 C   0  0  0  0  0  0           0  0  0
   -1.5208   -4.6917    0.0000 C   0  0  0  0  0  0           0  0  0
    5.2417   -8.7292    0.0000 C   0  0  0  0  0  0           0  0  0
    3.8167   -9.5625    0.0000 C   0  0  0  0  0  0           0  0  0
    2.7500   -4.4417    0.0000 C   0  0  0  0  0  0           0  0  0
   -1.6833   -3.8792    0.0000 C   0  0  0  0  0  0           0  0  0
    4.5375   -9.9667    0.0000 C   0  0  0  0  0  0           0  0  0
    5.2500   -9.5542    0.0000 C   0  0  0  0  0  0           0  0  0
  2  1  1  0     0  0
  3  1  1  0     0  0
  4  1  1  0     0  0
  5  2  1  0     0  0
  6  2  2  0     0  0
  7  3  1  0     0  0
  8 14  1  0     0  0
  9 10  2  0     0  0
 10  8  1  0     0  0
 11 13  1  0     0  0
 12  4  2  0     0  0
 13  8  2  0     0  0
 14 15  2  0     0  0
 15 17  1  0     0  0
 16  3  1  0     0  0
 17 19  2  0     0  0
 18 22  2  0     0  0
 19 23  1  0     0  0
 20 16  1  0     0  0
 21  5  1  0     0  0
 22 20  1  0     0  0
 23 20  2  0     0  0
 24 12  1  0     0  0
 25 14  1  0     0  0
 26 15  1  0     0  0
 27 21  1  0     0  0
 28 24  1  0     0  0
 29 26  2  0     0  0
 30 29  1  0     0  0
  6 12  1  0     0  0
  7  5  2  0     0  0
 18 17  1  0     0  0
 25 30  2  0     0  0
  9 11  1  0     0  0
M  END