
  SciTegic12011114592D

 33 37  0  0  0  0            999 V2000
   -4.4502  -16.4603    0.0000 N   0  0
   -3.7344  -16.0502    0.0000 C   0  0
   -3.7315  -15.2235    0.0000 N   0  0
   -4.4505  -14.8088    0.0000 C   0  0
   -4.4510  -13.9830    0.0000 N   0  0
   -3.7357  -13.5696    0.0000 C   0  0
   -3.0207  -16.4655    0.0000 S   0  0
   -2.3042  -16.0551    0.0000 C   0  0
   -1.5947  -16.4735    0.0000 C   0  0
   -0.8787  -16.0637    0.0000 C   0  0
   -0.8754  -15.2372    0.0000 C   0  0
   -1.5941  -14.8220    0.0000 C   0  0
   -2.3073  -15.2341    0.0000 C   0  0
   -0.1594  -14.8258    0.0000 N   0  0
   -2.9492  -13.8180    0.0000 C   0  0
   -2.4698  -13.1457    0.0000 C   0  0
   -2.9610  -12.4819    0.0000 N   0  0
   -3.7441  -12.7439    0.0000 N   0  0
   -1.6441  -13.1385    0.0000 C   0  0
   -5.9383  -14.9697    0.0000 C   0  0
   -6.4250  -15.6315    0.0000 C   0  0
   -5.9392  -16.2938    0.0000 C   0  0
   -5.1607  -16.0415    0.0000 N   0  0
   -5.1601  -15.2230    0.0000 C   0  0
    0.5548  -15.2401    0.0000 C   0  0
    1.2707  -14.8287    0.0000 C   0  0
    1.9850  -15.2431    0.0000 N   0  0
    0.5531  -16.0658    0.0000 O   0  0
    1.9769  -16.0695    0.0000 C   0  0
    2.6870  -16.4838    0.0000 C   0  0
    3.4054  -16.0759    0.0000 O   0  0
    3.4091  -15.2492    0.0000 C   0  0
    2.6944  -14.8304    0.0000 C   0  0
 15 16  2  0
  2  7  1  0
  7  8  1  0
  6 15  1  0
 16 17  1  0
 18  6  2  0
  3  4  2  0
 16 19  1  0
 23 24  1  0
  8  9  2  0
  4 24  1  0
 21 22  2  0
  9 10  1  0
  1  2  2  0
 10 11  2  0
 20 21  1  0
 22 23  1  0
 24 20  2  0
  4  5  1  0
 14 25  1  0
 11 12  1  0
 25 26  1  0
 23  1  1  0
 26 27  1  0
 12 13  2  0
 25 28  2  0
 27 29  1  0
 13  8  1  0
  5  6  1  0
 11 14  1  0
 17 18  1  0
  2  3  1  0
 27 33  1  0
 29 30  1  0
 30 31  1  0
 31 32  1  0
 32 33  1  0
M  END