
  SciTegic12231509382D

 30 32  0  0  0  0            999 V2000
    1.2990   -0.7500    0.0000 C   0  0
    1.2990    0.7500    0.0000 C   0  0  2  0  0  0
    0.0000    1.5000    0.0000 N   0  0
   -1.2990    0.7500    0.0000 C   0  0
   -1.2990   -0.7500    0.0000 C   0  0
    0.0000   -1.5000    0.0000 N   0  0
   -0.0031    3.0008    0.0000 C   0  0
    1.0351    3.6026    0.0000 O   0  0
   -1.3039    3.7494    0.0000 C   0  0
   -1.3070    5.2502    0.0000 O   0  0
   -2.6078    5.9988    0.0000 C   0  0
   -2.6131    7.4988    0.0000 C   0  0
   -3.9148    8.2443    0.0000 C   0  0
   -5.2112    7.4898    0.0000 C   0  0
   -5.2060    5.9898    0.0000 C   0  0
   -3.9044    5.2443    0.0000 C   0  0
   -6.2525    8.0862    0.0000 Cl  0  0
   -0.0031   -3.0008    0.0000 C   0  0
   -1.3039   -3.7494    0.0000 C   0  0
   -1.3092   -5.2494    0.0000 C   0  0
   -2.6108   -5.9949    0.0000 C   0  0
   -3.9072   -5.2404    0.0000 C   0  0
   -3.9020   -3.7404    0.0000 C   0  0
   -2.6004   -2.9949    0.0000 C   0  0
   -4.9485   -5.8368    0.0000 F   0  0
    2.3383    1.3500    0.0000 C   0  0
   -1.3176    8.2564    0.0000 N   0  0
   -1.3250    9.7572    0.0000 C   0  0
   -2.3673   10.3518    0.0000 N   0  0
   -0.2891   10.3630    0.0000 O   0  0
  1  2  1  0
  2  3  1  0
  3  4  1  0
  4  5  1  0
  1  6  1  0
  5  6  1  0
  3  7  1  0
  7  8  2  0
  7  9  1  0
  9 10  1  0
 10 11  1  0
 11 12  1  0
 12 13  2  0
 13 14  1  0
 14 15  2  0
 11 16  2  0
 15 16  1  0
 14 17  1  0
  6 18  1  0
 18 19  1  0
 19 20  2  0
 20 21  1  0
 21 22  2  0
 22 23  1  0
 19 24  1  0
 23 24  2  0
 22 25  1  0
  2 26  1  6
 12 27  1  0
 27 28  1  0
 28 29  1  0
 28 30  2  0
M  END