
  SciTegic01161211252D

 32 34  0  0  0  0            999 V2000
   -2.7854  -19.4632    0.0000 C   0  0  1  0  0  0
   -2.7884  -20.2930    0.0000 C   0  0
   -2.0774  -20.7042    0.0000 N   0  0
   -2.0760  -19.0523    0.0000 O   0  0
   -0.6345  -18.2327    0.0000 C   0  0
   -1.3515  -17.8134    0.0000 C   0  0
   -2.0754  -18.2240    0.0000 C   0  0
   -0.6415  -19.0626    0.0000 C   0  0
   -0.6695  -21.5439    0.0000 C   0  0
   -2.7881  -17.8085    0.0000 O   0  0
   -1.3732  -20.2986    0.0000 C   0  0
   -0.6574  -20.7204    0.0000 C   0  0  1  0  0  0
    0.0672  -20.3070    0.0000 C   0  0
    0.0709  -19.4792    0.0000 C   0  0
   -1.3692  -19.4736    0.0000 O   0  0
    0.0388  -21.9669    0.0000 C   0  0
    0.0267  -22.7918    0.0000 N   0  0
    0.7593  -21.5649    0.0000 O   0  0
    0.7351  -23.2147    0.0000 C   0  0
    0.7230  -24.0396    0.0000 C   0  0
    0.0011  -24.4368    0.0000 C   0  0
   -0.0114  -25.2609    0.0000 C   0  0
    0.6975  -25.6847    0.0000 C   0  0
    1.4204  -25.2783    0.0000 C   0  0
    1.4293  -24.4555    0.0000 C   0  0
    0.6865  -26.5096    0.0000 Cl  0  0
   -3.4994  -19.0499    0.0000 C   0  0
   -3.4951  -18.2280    0.0000 C   0  0
   -4.2083  -17.8148    0.0000 C   0  0
   -4.9242  -18.2265    0.0000 C   0  0
   -4.9225  -19.0558    0.0000 C   0  0
   -4.2087  -19.4653    0.0000 C   0  0
  9 16  1  0
  3 11  1  0
 16 17  1  0
 16 18  2  0
 12  9  1  1
 17 19  1  0
  1  2  1  0
 19 20  1  0
  7 10  2  0
 20 21  2  0
  1  4  1  0
 21 22  1  0
  2  3  1  0
 22 23  2  0
 11 12  1  0
 23 24  1  0
  4  7  1  0
 24 25  2  0
 25 20  1  0
 12 13  1  0
 23 26  1  0
  8  5  1  0
  1 27  1  6
 13 14  1  0
 27 28  2  0
 14  8  2  0
 28 29  1  0
  5  6  1  0
 29 30  2  0
 11 15  2  0
 30 31  1  0
  6  7  1  0
 31 32  2  0
 32 27  1  0
M  END