
  SciTegic04191610272D

 44 47  0  0  0  0            999 V2000
    2.3433    0.4779    0.0000 O   0  0
    3.8438    0.4465    0.0000 C   0  0
    4.4216   -0.6052    0.0000 C   0  0
    4.4661    1.4726    0.0000 O   0  0
   -1.6885    1.6885    0.0000 C   0  0  1  0  0  0
   -1.6885    0.2287    0.0000 C   0  0
   -0.4573    2.4272    0.0000 C   0  0
    0.7739    1.6885    0.0000 C   0  0  1  0  0  0
    1.9699   -0.4749    0.0000 C   0  0  1  0  0  0
    3.2891    0.2287    0.0000 C   0  0
    3.2891    1.6709    0.0000 C   0  0  2  0  0  0
    1.9699    2.4097    0.0000 C   0  0  1  0  0  0
    0.7739    0.2462    0.0000 C   0  0  1  0  0  0
   -0.4573   -0.4573    0.0000 C   0  0
   -0.6508   -2.1282    0.0000 C   0  0  2  0  0  0
    1.3016   -2.4624    0.0000 O   0  0
    1.5654   -0.8091    0.0000 C   0  0  1  0  0  0
    1.8992   -1.9748    0.0000 O   0  0
    3.4302    2.6546    0.0000 C   0  0
    3.9899    4.0472    0.0000 C   0  0
    5.4756    4.2596    0.0000 C   0  0
    6.0354    5.6521    0.0000 C   0  0
    6.2164    3.3155    0.0000 C   0  0
    7.2233    5.8220    0.0000 C   0  0
    4.3244    2.2777    0.0000 C   0  0
   -1.8646   -2.9937    0.0000 O   0  0
   -3.2300   -2.3705    0.0000 C   0  0
   -3.3439   -1.1759    0.0000 C   0  0
   -4.2078   -3.0661    0.0000 O   0  0
   -2.9933    2.4316    0.0000 O   0  0
   -4.2892    1.6745    0.0000 C   0  0
    0.7728    2.6885    0.0000 H   0  0
    0.9074    2.9673    0.0000 C   0  0
   -5.5932    2.4174    0.0000 C   0  0
   -4.2826    0.4745    0.0000 O   0  0
   -6.8895    1.6626    0.0000 C   0  0
   -8.1914    2.4077    0.0000 C   0  0
   -8.1970    3.9077    0.0000 C   0  0
   -6.9008    4.6626    0.0000 C   0  0
   -5.5989    3.9175    0.0000 C   0  0
   -9.2385    4.5038    0.0000 O   0  0
    3.1620   -2.7859    0.0000 C   0  0
    4.2283   -2.2354    0.0000 C   0  0
    3.1060   -3.9846    0.0000 O   0  0
  1  2  1  0
  2  3  1  0
  2  4  2  0
  5  6  1  0
  5  7  1  0
  6 14  2  0
  8  7  1  0
  8 13  1  0
  8 12  1  0
 13  9  1  0
  9 10  1  0
 10 11  1  0
 11 12  1  0
 13 14  1  1
 14 15  1  0
 15 16  1  0
 13 17  1  0
  9 18  1  6
 12 19  1  0
 19 20  1  0
 20 21  2  0
 21 22  1  0
 21 23  1  0
 22 24  2  0
 11 25  1  6
 15 26  1  6
 26 27  1  0
 27 28  1  0
 27 29  2  0
 30 31  1  0
  5 30  1  6
  8 32  1  6
 12 33  1  1
 17 16  1  0
 17  1  1  6
 31 34  1  0
 31 35  2  0
 34 36  2  0
 36 37  1  0
 37 38  2  0
 38 39  1  0
 39 40  2  0
 40 34  1  0
 38 41  1  0
 18 42  1  0
 42 43  1  0
 42 44  2  0
M  END