
  SciTegic03151118422D

 17 18  0  0  0  0            999 V2000
    7.2788    2.0000    0.0000 C   0  0
    7.2788    1.0000    0.0000 C   0  0
    6.4128    2.5000    0.0000 C   0  0
    6.4128    0.5000    0.0000 C   0  0
    1.0000    2.2024    0.0000 C   0  0
    0.5000    1.3364    0.0000 C   0  0
    2.9487    0.5000    0.0000 C   0  0
    3.8147    2.0000    0.0000 C   0  0
    3.8147    1.0000    0.0000 C   0  0
    5.5468    2.0000    0.0000 C   0  0
    5.5468    1.0000    0.0000 C   0  0
    2.0827    1.0000    0.0000 C   0  0
    1.9781    1.9945    0.0000 N   0  0
    1.1691    0.5933    0.0000 N   0  0
    4.6808    2.5000    0.0000 O   0  0
    4.6808    0.5000    0.0000 O   0  0
    0.0000    0.0000    0.0000 Cl  0  0
  1  2  2  0
  1  3  1  0
  2  4  1  0
  3 10  2  0
  4 11  2  0
  5  6  1  0
  5 13  1  0
  6 14  1  0
  7  9  1  0
  7 12  1  0
  8  9  1  0
  8 15  1  0
  9 16  1  0
 10 11  1  0
 10 15  1  0
 11 16  1  0
 12 13  2  0
 12 14  1  0
M  END