
          11280715362D 1   1.00000     0.00000     0

 25 27  0     0  0            999 V2000
    4.5792   -6.7792    0.0000 C   0  0  0  0  0  0           0  0  0
    4.0625   -6.4792    0.0000 C   0  0  3  0  0  0           0  0  0
    4.5792   -7.3792    0.0000 C   0  0  0  0  0  0           0  0  0
    4.0625   -7.6792    0.0000 O   0  0  0  0  0  0           0  0  0
    3.5375   -7.3875    0.0000 C   0  0  3  0  0  0           0  0  0
    3.5375   -6.7792    0.0000 C   0  0  3  0  0  0           0  0  0
    5.1000   -6.4792    0.0000 C   0  0  0  0  0  0           0  0  0
    3.0125   -6.4792    0.0000 C   0  0  0  0  0  0           0  0  0
    6.6625   -7.3625    0.0000 C   0  0  0  0  0  0           0  0  0
    7.1792   -7.0500    0.0000 C   0  0  0  0  0  0           0  0  0
    4.0625   -5.8750    0.0000 C   0  0  0  0  0  0           0  0  0
    3.0125   -5.8750    0.0000 C   0  0  0  0  0  0           0  0  0
    3.5500   -5.5750    0.0000 C   0  0  0  0  0  0           0  0  0
    5.1000   -7.6792    0.0000 C   0  0  0  0  0  0           0  0  0
    5.6250   -6.7792    0.0000 C   0  0  0  0  0  0           0  0  0
    5.6250   -7.3792    0.0000 C   0  0  0  0  0  0           0  0  0
    5.0875   -5.8792    0.0000 O   0  0  0  0  0  0           0  0  0
    6.1500   -7.6667    0.0000 C   0  0  0  0  0  0           0  0  0
    2.9750   -7.1875    0.0000 C   0  0  0  0  0  0           0  0  0
    3.3375   -7.9542    0.0000 C   0  0  0  0  0  0           0  0  0
    9.2625   -7.0125    0.0000 N   0  0  0  0  0  0           0  0  0
    7.7000   -6.7375    0.0000 C   0  0  0  0  0  0           0  0  0
    3.5625   -4.9750    0.0000 C   0  0  0  0  0  0           0  0  0
    8.7375   -6.7167    0.0000 C   0  0  0  0  0  0           0  0  0
    8.2250   -7.0292    0.0000 C   0  0  0  0  0  0           0  0  0
  2  1  1  0     0  0
  3  1  1  0     0  0
  4  3  1  0     0  0
  5  4  1  0     0  0
  6  2  1  0     0  0
  7  1  2  0     0  0
  8  6  1  0     0  0
  9 18  1  0     0  0
 10  9  3  0     0  0
 11  2  1  0     0  0
 12 13  2  0     0  0
 13 11  1  0     0  0
 14  3  2  0     0  0
 15  7  1  0     0  0
 16 15  2  0     0  0
 17  7  1  0     0  0
 18 16  1  0     0  0
 19  5  1  0     0  0
 20  5  1  0     0  0
 21 24  1  0     0  0
 22 10  1  0     0  0
 23 13  1  0     0  0
 24 25  1  0     0  0
 25 22  1  0     0  0
  5  6  1  0     0  0
 16 14  1  0     0  0
 12  8  1  0     0  0
M  END