
          11280715132D 1   1.00000     0.00000     0

 32 34  0     0  0            999 V2000
   -1.5958   -1.7917    0.0000 C   0  0  0  0  0  0           0  0  0
   -1.5958   -1.1917    0.0000 C   0  0  0  0  0  0           0  0  0
   -2.1208   -2.0917    0.0000 N   0  0  3  0  0  0           0  0  0
   -2.6333   -1.1917    0.0000 N   0  0  3  0  0  0           0  0  0
   -2.6333   -1.7917    0.0000 C   0  0  0  0  0  0           0  0  0
   -2.1208   -0.8917    0.0000 C   0  0  0  0  0  0           0  0  0
   -1.0250   -1.9792    0.0000 N   0  0  0  0  0  0           0  0  0
    3.4125   -2.4042    0.0000 S   0  0  3  0  0  0           0  0  0
   -1.0250   -1.0042    0.0000 N   0  0  0  0  0  0           0  0  0
   -0.6708   -1.4917    0.0000 C   0  0  0  0  0  0           0  0  0
    2.8292   -2.5542    0.0000 C   0  0  0  0  0  0           0  0  0
    1.4042   -1.8625    0.0000 C   0  0  0  0  0  0           0  0  0
    1.8292   -2.2875    0.0000 C   0  0  0  0  0  0           0  0  0
   -3.1500   -2.0917    0.0000 O   0  0  0  0  0  0           0  0  0
    2.4042   -2.1292    0.0000 C   0  0  0  0  0  0           0  0  0
    3.4042   -1.8042    0.0000 O   0  0  0  0  0  0           0  0  0
    3.4042   -3.0042    0.0000 O   0  0  0  0  0  0           0  0  0
   -2.1208   -0.2917    0.0000 O   0  0  0  0  0  0           0  0  0
   -0.0708   -1.4917    0.0000 C   0  0  0  0  0  0           0  0  0
    4.0125   -2.4042    0.0000 F   0  0  0  0  0  0           0  0  0
    1.5667   -1.2792    0.0000 O   0  0  0  0  0  0           0  0  0
   -2.1208   -2.6917    0.0000 C   0  0  0  0  0  0           0  0  0
   -3.1500   -0.8917    0.0000 C   0  0  0  0  0  0           0  0  0
    0.8292   -2.0125    0.0000 N   0  0  0  0  0  0           0  0  0
    0.2292   -2.0125    0.0000 C   0  0  0  0  0  0           0  0  0
    2.6750   -3.1417    0.0000 C   0  0  0  0  0  0           0  0  0
    1.6667   -2.8667    0.0000 C   0  0  0  0  0  0           0  0  0
    2.0917   -3.2917    0.0000 C   0  0  0  0  0  0           0  0  0
   -2.6375   -2.9917    0.0000 C   0  0  0  0  0  0           0  0  0
   -3.1583   -0.2917    0.0000 C   0  0  0  0  0  0           0  0  0
   -2.6375   -3.5917    0.0000 C   0  0  0  0  0  0           0  0  0
   -3.6708    0.0083    0.0000 C   0  0  0  0  0  0           0  0  0
  2  1  2  0     0  0
  3  1  1  0     0  0
  4  5  1  0     0  0
  5  3  1  0     0  0
  6  2  1  0     0  0
  7  1  1  0     0  0
  8 11  1  0     0  0
  9  2  1  0     0  0
 10  7  1  0     0  0
 11 15  2  0     0  0
 12 24  1  0     0  0
 13 12  1  0     0  0
 14  5  2  0     0  0
 15 13  1  0     0  0
 16  8  2  0     0  0
 17  8  2  0     0  0
 18  6  2  0     0  0
 19 10  1  0     0  0
 20  8  1  0     0  0
 21 12  2  0     0  0
 22  3  1  0     0  0
 23  4  1  0     0  0
 24 25  1  0     0  0
 25 19  1  0     0  0
 26 28  2  0     0  0
 27 13  2  0     0  0
 28 27  1  0     0  0
 29 22  1  0     0  0
 30 23  1  0     0  0
 31 29  1  0     0  0
 32 30  1  0     0  0
  9 10  2  0     0  0
  4  6  1  0     0  0
 11 26  1  0     0  0
M  END