
  SciTegic09081514182D

 42 44  0  0  0  0            999 V2000
    5.0929   -0.6237    0.0000 Br  0  5
   -9.1121    1.4882    0.0000 C   0  0
  -15.6109    0.7277    0.0000 C   0  0
  -13.0109    0.7319    0.0000 C   0  0
  -11.7121    1.4840    0.0000 C   0  0
  -19.5144    2.9714    0.0000 C   0  0
  -15.3522    2.0783    0.0000 C   0  0
  -16.9120    1.4756    0.0000 C   0  0
  -18.2132    2.2235    0.0000 C   0  0
  -14.3121    1.4798    0.0000 N   0  3
  -10.4109    0.7361    0.0000 C   0  0
  -14.3140    2.6798    0.0000 C   0  0
  -20.8132    2.2193    0.0000 O   0  0
  -22.1144    2.9672    0.0000 C   0  0
  -23.4659    2.3464    0.0000 C   0  0
  -24.4694    3.4612    0.0000 C   0  0
  -23.7193    4.7602    0.0000 O   0  0
  -22.2521    4.4481    0.0000 N   0  0
   -7.8109    0.7403    0.0000 C   0  0
   -6.5121    1.4924    0.0000 C   0  0
   -5.2109    0.7445    0.0000 N   0  0
   -1.2928    2.6973    0.0000 O   0  0
    1.2964    1.4973    0.0000 C   0  0
    0.0000   -0.7486    0.0000 C   0  0
   -1.2964   -1.4973    0.0000 N   0  0
   -5.1852   -3.7608    0.0000 C   0  0
   -3.9122    1.4966    0.0000 C   0  0
   -2.6111    0.7486    0.0000 C   0  0
   -2.5835   -5.2544    0.0000 C   0  0
    1.2964   -1.4973    0.0000 C   0  0
    1.2964   -2.6973    0.0000 F   0  0
   -1.2964    1.4973    0.0000 C   0  0
   -3.9141    2.6966    0.0000 O   0  0
   -2.6111   -0.7486    0.0000 C   0  0
   -3.8880   -3.0076    0.0000 C   0  0
    2.5929    0.7486    0.0000 C   0  0
   -1.2907   -2.9981    0.0000 C   0  0
    2.5929   -0.7486    0.0000 C   0  0
   -2.5870   -3.7544    0.0000 C   0  0
    0.0000    0.7486    0.0000 C   0  0
   -5.1815   -5.2608    0.0000 C   0  0
   -3.8807   -6.0076    0.0000 C   0  0
  9  6  1  0
  8  9  3  0
  3  8  1  0
 11  5  1  0
 10  3  1  0
  2 11  1  0
 10 12  1  0
  4 10  1  0
  5  4  1  0
 10  7  1  0
  6 13  1  0
 13 14  1  0
 14 15  1  0
 15 16  1  0
 16 17  1  0
 17 18  1  0
 18 14  2  0
  2 19  1  0
 19 20  1  0
 20 21  1  0
 25 34  1  0
 42 29  2  0
 27 21  1  0
 26 41  2  0
 29 39  1  0
 40 23  2  0
 30 31  1  0
 30 24  2  0
 28 27  1  0
 38 30  1  0
 32 22  2  0
 41 42  1  0
 39 35  2  0
 35 26  1  0
 25 37  1  0
 40 32  1  0
 28 32  1  0
 23 36  1  0
 37 39  1  0
 24 25  1  0
 36 38  2  0
 27 33  2  0
 34 28  2  0
 40 24  1  0
M  CHG  2   1  -1  10   1
M  END