
  SciTegic06051315212D

 38 44  0  0  0  0            999 V2000
   13.2673   -9.8403    0.0000 C   0  0
   14.6742   -6.5744    0.0000 C   0  0
   13.9795  -10.2466    0.0000 C   0  0
   17.1667   -5.7964    0.0000 C   0  0
   14.6740   -7.3917    0.0000 N   0  0
   14.6725   -4.9367    0.0000 C   0  0
   15.3829   -6.1648    0.0000 N   0  0
   13.9672   -7.8002    0.0000 C   0  0  2  0  0  0
   15.2779   -3.6443    0.0000 C   0  0
   12.5536   -7.7961    0.0000 C   0  0
   13.2646   -9.0230    0.0000 N   0  0
   14.3908  -10.9501    0.0000 C   0  0
   13.2599   -7.3883    0.0000 C   0  0
   16.0000   -4.0214    0.0000 C   0  0
   17.2723   -4.3862    0.0000 C   0  0
   12.5619  -10.2513    0.0000 O   0  0
   16.8123   -5.0640    0.0000 C   0  0
   14.5872   -4.0798    0.0000 C   0  0
   16.7680   -3.7426    0.0000 N   0  0
   14.7971  -10.2419    0.0000 C   0  0
   13.9721   -8.6128    0.0000 C   0  0
   16.0278   -4.8393    0.0000 N   0  0
   15.2470   -2.8263    0.0000 C   0  0
   12.5529   -8.6143    0.0000 C   0  0
   18.0824   -4.4441    0.0000 C   0  0
   18.4393   -5.1739    0.0000 C   0  0
   13.8653   -3.7031    0.0000 C   0  0
   15.3801   -5.3420    0.0000 C   0  0
   13.9672   -6.1653    0.0000 N   0  0
   13.9683   -5.3456    0.0000 C   0  0
   17.9810   -5.8565    0.0000 C   0  0
   13.8300   -2.8842    0.0000 C   0  0
   14.5240   -2.4465    0.0000 C   0  0
   14.4910   -1.6286    0.0000 C   0  0
   13.7648   -1.2473    0.0000 C   0  0
   13.0703   -1.6900    0.0000 C   0  0
   13.1067   -2.5064    0.0000 C   0  0
   19.2546   -5.2296    0.0000 O   0  0
  3 20  1  0
 24 11  1  0
 15 17  2  0
 11  1  1  0
 10 24  1  0
  4 31  2  0
  1  3  1  0
 14  9  1  0
 19 14  2  0
  6 30  1  0
  2  5  1  0
 13 10  1  0
 14 22  1  0
 26 25  2  0
 31 26  1  0
 21  8  1  0
  2  7  2  0
 30 29  2  0
  7 28  1  0
 20 12  1  0
 27 18  2  0
 29  2  1  0
  1 16  2  0
  9 23  2  0
 18  9  1  0
 25 15  1  0
 15 19  1  0
 32 27  1  0
 28  6  2  0
  8  5  1  1
 17  4  1  0
 11 21  1  0
 22 17  1  0
  8 13  1  0
 12  3  1  0
 28 22  1  0
 23 33  1  0
 32 33  1  0
 33 34  2  0
 34 35  1  0
 35 36  2  0
 36 37  1  0
 37 32  2  0
 26 38  1  0
M  END