
  CDK    12/20/10,15:21

 35 39  0  0  0  0  0  0  0  0999 V2000
   18.8194   -3.8750    0.0000 C   0  0  0  0  0  0  0  0  0  0  0  0
   18.8182   -4.7023    0.0000 C   0  0  0  0  0  0  0  0  0  0  0  0
   19.5331   -5.1152    0.0000 C   0  0  0  0  0  0  0  0  0  0  0  0
   20.2495   -4.7019    0.0000 C   0  0  0  0  0  0  0  0  0  0  0  0
   20.2466   -3.8713    0.0000 N   0  0  0  0  0  0  0  0  0  0  0  0
   19.5313   -3.4622    0.0000 C   0  0  0  0  0  0  0  0  0  0  0  0
   18.1035   -5.1143    0.0000 C   0  0  0  0  0  0  0  0  0  0  0  0
   17.3893   -4.7012    0.0000 N   0  0  0  0  0  0  0  0  0  0  0  0
   17.3939   -3.8720    0.0000 C   0  0  0  0  0  0  0  0  0  0  0  0
   16.6839   -3.4590    0.0000 C   0  0  0  0  0  0  0  0  0  0  0  0
   15.9667   -3.8674    0.0000 C   0  0  0  0  0  0  0  0  0  0  0  0
   15.9640   -4.6934    0.0000 C   0  0  0  0  0  0  0  0  0  0  0  0
   16.6786   -5.1109    0.0000 C   0  0  0  0  0  0  0  0  0  0  0  0
   15.2541   -3.4517    0.0000 C   0  0  0  0  0  0  0  0  0  0  0  0
   15.2579   -2.6267    0.0000 O   0  0  0  0  0  0  0  0  0  0  0  0
   14.5377   -3.8609    0.0000 N   0  0  0  0  0  0  0  0  0  0  0  0
   13.8217   -3.4458    0.0000 C   0  0  0  0  0  0  0  0  0  0  0  0
   13.1075   -3.8515    0.0000 C   0  0  0  0  0  0  0  0  0  0  0  0
   13.0994   -4.6768    0.0000 C   0  0  0  0  0  0  0  0  0  0  0  0
   13.8118   -5.0948    0.0000 C   0  0  0  0  0  0  0  0  0  0  0  0
   14.5323   -4.6874    0.0000 C   0  0  0  0  0  0  0  0  0  0  0  0
   12.3815   -5.0833    0.0000 N   0  0  0  0  0  0  0  0  0  0  0  0
   11.6289   -4.7407    0.0000 C   0  0  0  0  0  0  0  0  0  0  0  0
   11.0718   -5.3492    0.0000 N   0  0  0  0  0  0  0  0  0  0  0  0
   12.2866   -5.9022    0.0000 C   0  0  0  0  0  0  0  0  0  0  0  0
   11.4810   -6.0690    0.0000 C   0  0  0  0  0  0  0  0  0  0  0  0
   11.2242   -6.8486    0.0000 C   0  0  0  0  0  0  0  0  0  0  0  0
   11.7720   -7.4621    0.0000 C   0  0  0  0  0  0  0  0  0  0  0  0
   12.5799   -7.2908    0.0000 C   0  0  0  0  0  0  0  0  0  0  0  0
   12.8329   -6.5114    0.0000 C   0  0  0  0  0  0  0  0  0  0  0  0
   11.4641   -3.9323    0.0000 O   0  0  0  0  0  0  0  0  0  0  0  0
   10.2520   -5.2568    0.0000 C   0  0  0  0  0  0  0  0  0  0  0  0
    9.9221   -4.5006    0.0000 C   0  0  0  0  0  0  0  0  0  0  0  0
    9.1023   -4.4082    0.0000 O   0  0  0  0  0  0  0  0  0  0  0  0
    8.7723   -3.6521    0.0000 C   0  0  0  0  0  0  0  0  0  0  0  0
  7  8  1  0  0  0  0 
  8  9  1  0  0  0  0 
  4  5  1  0  0  0  0 
  2  3  1  0  0  0  0 
 16 21  1  0  0  0  0 
 17 18  1  0  0  0  0 
 18 19  1  0  0  0  0 
 19 20  1  0  0  0  0 
 20 21  1  0  0  0  0 
  5  6  2  0  0  0  0 
 19 22  1  0  0  0  0 
 22 23  1  0  0  0  0 
  6  1  1  0  0  0  0 
  8 13  1  0  0  0  0 
 23 24  1  0  0  0  0 
 24 26  1  0  0  0  0 
 25 22  1  0  0  0  0 
  9 10  1  0  0  0  0 
 10 11  1  0  0  0  0 
 25 26  2  0  0  0  0 
 11 12  1  0  0  0  0 
 26 27  1  0  0  0  0 
 12 13  1  0  0  0  0 
 27 28  2  0  0  0  0 
  1  2  2  0  0  0  0 
 28 29  1  0  0  0  0 
 11 14  1  0  0  0  0 
 29 30  2  0  0  0  0 
 30 25  1  0  0  0  0 
  2  7  1  0  0  0  0 
 23 31  2  0  0  0  0 
 14 15  2  0  0  0  0 
 24 32  1  0  0  0  0 
  3  4  2  0  0  0  0 
 32 33  1  0  0  0  0 
 14 16  1  0  0  0  0 
 33 34  1  0  0  0  0 
 16 17  1  0  0  0  0 
 34 35  1  0  0  0  0 
M  END