
  SciTegic01201417202D

124128  0  0  0  0            999 V2000
   10.7670   -3.1679    0.0000 N   0  0
   10.7670   -3.9884    0.0000 C   0  0  1  0  0  0
   12.1916   -3.9884    0.0000 O   0  0
   10.0513   -4.4020    0.0000 C   0  0
   11.4808   -4.4020    0.0000 C   0  0
   11.4808   -5.2224    0.0000 N   0  0
   12.1916   -5.6390    0.0000 C   0  0
   11.4808   -6.8760    0.0000 O   0  0
   12.1916   -6.4643    0.0000 C   0  0
   12.9025   -5.2224    0.0000 C   0  0
   12.9025   -6.8760    0.0000 N   0  0
   12.9025   -7.7012    0.0000 C   0  0  2  0  0  0
   13.6211   -8.9353    0.0000 O   0  0
   13.6211   -8.1100    0.0000 C   0  0
   12.1916   -8.1100    0.0000 C   0  0
   12.1916   -8.9353    0.0000 C   0  0
   12.9025   -9.3471    0.0000 O   0  0
   11.4808   -9.3471    0.0000 N   0  0
   14.3320   -7.7012    0.0000 N   0  0
   14.3320   -6.8760    0.0000 C   0  0  2  0  0  0
   15.0458   -5.6390    0.0000 O   0  0
   15.0458   -6.4643    0.0000 C   0  0
   13.6211   -6.4643    0.0000 C   0  0
   13.6211   -5.6390    0.0000 S   0  0
   15.7566   -6.8760    0.0000 N   0  0
   16.4752   -6.4643    0.0000 C   0  0  2  0  0  0
   17.8968   -6.4643    0.0000 O   0  0
   17.1861   -6.8760    0.0000 C   0  0
   16.4752   -5.6390    0.0000 C   0  0
   15.7566   -5.2224    0.0000 O   0  0
   17.1861   -7.7012    0.0000 N   0  0
   16.4752   -8.1100    0.0000 C   0  0  2  0  0  0
   17.1861   -9.3471    0.0000 O   0  0
   16.4752   -8.9353    0.0000 C   0  0
   15.7566   -7.7012    0.0000 C   0  0
   15.0458   -8.1100    0.0000 O   0  0
   15.7566   -9.3471    0.0000 N   0  0
   15.7566  -10.1724    0.0000 C   0  0
   17.1861  -10.1724    0.0000 O   0  0
   16.4752  -10.5811    0.0000 C   0  0
   16.4752  -11.4063    0.0000 N   0  0
   17.1861  -11.8181    0.0000 C   0  0  2  0  0  0
   17.8968  -10.5811    0.0000 O   0  0
   17.8968  -11.4063    0.0000 C   0  0
   17.1861  -12.6434    0.0000 C   0  0
   18.6454  -12.7843    0.0000 C   0  0
   17.8803  -13.0834    0.0000 C   0  0
   19.1702  -13.4207    0.0000 N   0  0
   17.9314  -13.9103    0.0000 C   0  0
   18.7259  -14.1140    0.0000 C   0  0
   18.9469  -14.9115    0.0000 C   0  0
   18.3662  -15.4953    0.0000 C   0  0
   17.5717  -15.2886    0.0000 C   0  0
   17.3478  -14.4939    0.0000 C   0  0
   18.6154  -11.8181    0.0000 N   0  0
   19.3292  -11.4063    0.0000 C   0  0  1  0  0  0
   18.6154  -10.1724    0.0000 O   0  0
   20.0449  -11.8181    0.0000 C   0  0
   19.3292  -10.5811    0.0000 C   0  0
   18.3430   -7.5454    0.0000 N   0  0
   19.1488   -7.3607    0.0000 C   0  0
   19.7149   -7.9576    0.0000 N   0  0
   19.3863   -6.5704    0.0000 N   0  0
   20.0449  -10.1724    0.0000 N   0  0
   20.0449   -9.3471    0.0000 C   0  0  2  0  0  0
   20.7509   -8.1100    0.0000 O   0  0
   20.7509   -8.9353    0.0000 C   0  0
   19.4773   -8.7480    0.0000 C   0  0
   18.6753   -8.9369    0.0000 C   0  0
   18.1055   -8.3359    0.0000 C   0  0
   21.4695   -9.3471    0.0000 N   0  0
   22.1804   -8.9353    0.0000 C   0  0  2  0  0  0
   21.4695   -7.7012    0.0000 O   0  0
   22.1804   -8.1100    0.0000 C   0  0
   22.8990   -9.3471    0.0000 C   0  0
   22.8990  -10.1724    0.0000 C   0  0
   23.6099  -10.5811    0.0000 O   0  0
   22.1804  -10.5811    0.0000 O   0  0
   22.8990   -7.7012    0.0000 N   0  0
   23.6099   -8.1100    0.0000 C   0  0  2  0  0  0
   25.0393   -8.1100    0.0000 O   0  0
   24.3237   -7.7012    0.0000 C   0  0
   23.6099   -8.9353    0.0000 C   0  0
   24.4057  -10.1620    0.0000 N   0  0
   25.2153  -10.3324    0.0000 C   0  0
   25.6283   -9.6224    0.0000 N   0  0
   25.0757   -9.0121    0.0000 C   0  0
   24.3237   -9.3471    0.0000 C   0  0
   24.3237   -6.8760    0.0000 N   0  0
   25.0393   -6.4643    0.0000 C   0  0  2  0  0  0
   25.7502   -5.2224    0.0000 O   0  0
   25.0393   -5.6390    0.0000 C   0  0
   25.7502   -6.8760    0.0000 C   0  0
   25.7502   -7.7012    0.0000 O   0  0
   27.1748   -4.4020    0.0000 N   0  0
   27.1748   -5.2224    0.0000 C   0  0
   27.8934   -5.6390    0.0000 N   0  0
   26.4640   -5.6390    0.0000 N   0  0
   24.3237   -5.2224    0.0000 N   0  0
   24.3237   -4.4020    0.0000 C   0  0  2  0  0  0
   23.6099   -3.1679    0.0000 O   0  0
   23.6099   -3.9884    0.0000 C   0  0
   25.0393   -3.9884    0.0000 C   0  0
   25.7502   -4.4020    0.0000 C   0  0
   26.4640   -3.9884    0.0000 C   0  0
   22.8990   -4.4020    0.0000 N   0  0
   22.1804   -3.9884    0.0000 C   0  0
   21.4695   -2.7514    0.0000 O   0  0
   22.1804   -3.1679    0.0000 C   0  0
   21.4695   -4.4020    0.0000 C   0  0
   22.8990   -2.7514    0.0000 N   0  0
   22.8990   -1.9309    0.0000 C   0  0  2  0  0  0
   24.3237   -1.9309    0.0000 O   0  0
   23.6099   -1.5173    0.0000 C   0  0
   22.1804   -1.5173    0.0000 C   0  0
   22.1804   -0.6969    0.0000 S   0  0
   23.6099   -0.6969    0.0000 N   0  0
   12.9025   -4.4020    0.0000 Se  0  0
   21.4695   -5.2224    0.0000 Se  0  0
   15.0458   -8.9353    0.0000 C   0  0
   14.3320   -9.3471    0.0000 C   0  0
   14.3320  -10.1724    0.0000 C   0  0
   13.6172  -10.5850    0.0000 C   0  0
   13.6173   -7.2880    0.0000 H   0  0
  5  6  1  0
  9 11  1  0
 14 19  1  0
 22 25  1  0
 28 31  1  0
 34 37  1  0
 40 41  1  0
 44 55  1  0
 59 64  1  0
 67 71  1  0
 74 79  1  0
 82 89  1  0
 92 99  1  0
102106  1  0
109111  1  0
114117  1  0
  2  1  1  6
  2  5  1  0
  5  3  2  0
  2  4  1  0
  7  6  1  0
  7  9  1  0
  9  8  2  0
  7 10  1  0
 12 11  1  0
 12 14  1  0
 14 13  2  0
 12 15  1  6
 15 16  1  0
 16 17  2  0
 16 18  1  0
 20 19  1  0
 20 22  1  0
 22 21  2  0
 20 23  1  0
 23 24  1  0
 26 25  1  0
 26 28  1  0
 28 27  2  0
 26 29  1  1
 29 30  1  0
 32 31  1  0
 32 34  1  0
 34 33  2  0
 32 35  1  6
 35 36  1  0
 37 38  1  0
 38 40  1  0
 40 39  2  0
 41 42  1  0
 42 44  1  0
 44 43  2  0
 42 45  1  6
 45 47  1  0
 46 47  2  0
 47 49  1  0
 48 46  1  0
 50 48  1  0
 49 50  2  0
 50 51  1  0
 51 52  2  0
 52 53  1  0
 53 54  2  0
 54 49  1  0
 55 56  1  0
 56 59  1  0
 59 57  2  0
 56 58  1  6
 60 61  1  0
 61 62  1  0
 61 63  2  0
 65 64  1  0
 65 67  1  0
 67 66  2  0
 65 68  1  1
 68 69  1  0
 69 70  1  0
 70 60  1  0
 72 71  1  0
 72 74  1  0
 74 73  2  0
 72 75  1  6
 75 76  1  0
 76 77  2  0
 76 78  1  0
 80 79  1  0
 80 82  1  0
 82 81  2  0
 80 83  1  6
 83 88  1  0
 84 85  1  0
 85 86  2  0
 86 87  1  0
 87 88  2  0
 88 84  1  0
 90 89  1  0
 90 92  1  0
 92 91  2  0
 90 93  1  6
 93 94  1  0
 95 96  1  0
 96 97  1  0
 96 98  2  0
100 99  1  0
100102  1  0
102101  2  0
100103  1  6
103104  1  0
104105  1  0
105 95  1  0
107106  1  0
107109  1  0
109108  2  0
107110  1  0
112111  1  0
112114  1  1
114113  2  0
112115  1  0
115116  1  0
 10118  1  0
110119  1  0
 37120  1  0
120121  1  0
121122  1  0
118119  1  0
 24116  1  0
122123  1  0
 20124  1  6
M  END