
          11280715122D 1   1.00000     0.00000     0

 15 16  0     1  0            999 V2000
    4.3417   -0.9000    0.0000 C   0  0  0  0  0  0           0  0  0
    4.8917   -0.2792    0.0000 N   0  0  3  0  0  0           0  0  0
    1.9625   -2.2667    0.0000 C   0  0  0  0  0  0           0  0  0
    2.6250   -2.7542    0.0000 S   0  0  0  0  0  0           0  0  0
    5.5667   -1.4375    0.0000 N   0  0  0  0  0  0           0  0  0
    3.0375   -1.4792    0.0000 C   0  0  2  0  0  0           0  0  0
    3.5250   -0.8125    0.0000 C   0  0  0  0  0  0           0  0  0
    5.6500   -0.6167    0.0000 C   0  0  0  0  0  0           0  0  0
    2.2125   -1.4792    0.0000 C   0  0  2  0  0  0           0  0  0
    4.7542   -1.6125    0.0000 C   0  0  0  0  0  0           0  0  0
    3.2917   -2.2667    0.0000 C   0  0  0  0  0  0           0  0  0
    1.1792   -2.5167    0.0000 O   0  0  0  0  0  0           0  0  0
    4.7250    0.5208    0.0000 C   0  0  0  0  0  0           0  0  0
    1.7292   -0.8125    0.0000 C   0  0  0  0  0  0           0  0  0
    0.9042   -0.9000    0.0000 C   0  0  0  0  0  0           0  0  0
  2  1  1  0     0  0
  3  9  1  0     0  0
  4 11  1  0     0  0
  5 10  1  0     0  0
  6  7  1  1     0  0
  7  1  1  0     0  0
  8  2  1  0     0  0
  9  6  1  0     0  0
 10  1  2  0     0  0
 11  6  1  0     0  0
 12  3  2  0     0  0
 13  2  1  0     0  0
  9 14  1  1     0  0
 15 14  1  0     0  0
  8  5  2  0     0  0
  3  4  1  0     0  0
M  END