
  SciTegic02181312462D

 31 35  0  0  0  0            999 V2000
    8.7821   -8.3318    0.0000 N   0  0
    9.4499   -8.8163    0.0000 C   0  0
    3.9899   -7.5013    0.0000 C   0  0
    5.4218   -5.0278    0.0000 C   0  0
    4.7078   -4.6144    0.0000 N   0  0
    6.2011   -7.2476    0.0000 N   0  0
    4.7012   -3.7870    0.0000 C   0  0
    7.9965   -8.5869    0.0000 C   0  0
    5.4180   -8.3279    0.0000 C   0  0
    8.7808   -7.5056    0.0000 N   0  0
    6.2013   -8.5824    0.0000 N   0  0
    5.4184   -7.5038    0.0000 C   0  0
    4.7048   -6.2663    0.0000 N   0  0
    7.5124   -7.9185    0.0000 C   0  0
    4.7044   -7.0905    0.0000 C   0  0
    3.9895   -8.3254    0.0000 C   0  0
    5.4214   -5.8519    0.0000 C   0  0
    7.9944   -7.2529    0.0000 C   0  0
    4.7036   -8.7388    0.0000 N   0  0
    7.7376   -6.4689    0.0000 C   0  0
    6.6877   -7.9150    0.0000 C   0  0
    3.2759   -7.0880    0.0000 Cl  0  0
    3.9908   -5.8530    0.0000 C   0  0
    3.9933   -5.0252    0.0000 C   0  0
    5.4056   -3.3728    0.0000 C   0  0
    6.1159   -3.7773    0.0000 C   0  0
    6.8199   -3.3638    0.0000 C   0  0
    6.8138   -2.5457    0.0000 C   0  0
    6.0979   -2.1430    0.0000 C   0  0
    5.3969   -2.5589    0.0000 C   0  0
    7.5177   -2.1306    0.0000 Cl  0  0
 16 19  1  0
 21 14  1  0
 21  6  2  0
 10 18  2  0
 17  4  1  0
  3 16  2  0
  4  5  1  0
  1  2  1  0
 13 17  1  0
 13 23  1  0
  1 10  1  0
 12  6  1  0
 14  8  2  0
  9 19  2  0
 18 14  1  0
 24 23  1  0
  5  7  1  0
 21 11  1  0
  8  1  1  0
 12 15  2  0
  3 22  1  0
  5 24  1  0
  9 11  1  0
 15 13  1  0
 18 20  1  0
 15  3  1  0
  9 12  1  0
  7 25  1  0
 25 26  2  0
 26 27  1  0
 27 28  2  0
 28 29  1  0
 29 30  2  0
 30 25  1  0
 28 31  1  0
M  END