
  SciTegic03161210572D

 32 32  0  0  0  0            999 V2000
   23.1958   -1.4833    0.0000 F   0  0
   23.6125   -2.2000    0.0000 C   0  0
   24.0248   -1.4808    0.0000 F   0  0
   23.3042   -3.3250    0.0000 F   0  0
   22.8958   -2.6125    0.0000 C   0  0
   22.4830   -3.3224    0.0000 F   0  0
   21.7667   -1.4833    0.0000 F   0  0
   22.1833   -2.2000    0.0000 C   0  0
   22.5957   -1.4808    0.0000 F   0  0
   21.8750   -3.3250    0.0000 F   0  0
   21.4667   -2.6125    0.0000 C   0  0
   21.0538   -3.3224    0.0000 F   0  0
   20.3375   -1.4833    0.0000 F   0  0
   20.7542   -2.2000    0.0000 C   0  0
   21.1665   -1.4808    0.0000 F   0  0
   20.4458   -3.3250    0.0000 F   0  0
   20.0375   -2.6125    0.0000 C   0  0
   19.6246   -3.3224    0.0000 F   0  0
   18.6125   -2.6167    0.0000 N   0  0
   19.3270   -2.2042    0.0000 C   0  0
   19.3270   -1.3792    0.0000 O   0  0
   24.3283   -2.6167    0.0000 C   0  0
   25.0427   -2.2042    0.0000 N   0  0
   24.3283   -3.4417    0.0000 O   0  0
   25.7572   -2.6167    0.0000 O   0  0
   17.8980   -2.2042    0.0000 C   0  0
   17.9030   -1.3781    0.0000 C   0  0
   17.1894   -0.9657    0.0000 C   0  0
   16.4739   -1.3782    0.0000 C   0  0
   16.4766   -2.2075    0.0000 C   0  0
   17.1908   -2.6162    0.0000 C   0  0
   15.7589   -0.9667    0.0000 I   0  0
  3  2  1  0
 19 20  1  0
 20 17  1  0
  8  7  1  0
 20 21  2  0
 17 14  1  0
 14 11  1  0
 11  8  1  0
  8  5  1  0
  5  2  1  0
 14 13  1  0
  2 22  1  0
 15 14  1  0
 22 23  1  0
  9  8  1  0
 22 24  2  0
  5  4  1  0
 23 25  1  0
  6  5  1  0
 19 26  1  0
 17 16  1  0
 26 27  2  0
 18 17  1  0
 27 28  1  0
 28 29  2  0
 11 10  1  0
 29 30  1  0
 12 11  1  0
 30 31  2  0
 31 26  1  0
  2  1  1  0
 29 32  1  0
M  END