
          02060813472D 1   1.00000     0.00000     0

 35 38  0     1  0            999 V2000
    4.7797  -10.2134    0.0000 C   0  0  0  0  0  0           0  0  0
   -3.8417   -8.2458    0.0000 C   0  0  0  0  0  0           0  0  0
   -3.8417   -9.0708    0.0000 O   0  0  0  0  0  0           0  0  0
   -3.1296   -9.4792    0.0000 C   0  0  0  0  0  0           0  0  0
   -2.4176   -9.0708    0.0000 C   0  0  0  0  0  0           0  0  0
   -2.4176   -8.2458    0.0000 N   0  0  3  0  0  0           0  0  0
   -3.1296   -7.8292    0.0000 C   0  0  0  0  0  0           0  0  0
   -1.7020   -7.8354    0.0000 C   0  0  0  0  0  0           0  0  0
   -0.9887   -8.2500    0.0000 C   0  0  0  0  0  0           0  0  0
   -1.6995   -7.0104    0.0000 O   0  0  0  0  0  0           0  0  0
   -0.2730   -7.8396    0.0000 C   0  0  1  0  0  0           0  0  0
   -0.2792   -7.0125    0.0000 C   0  0  0  0  0  0           0  0  0
    0.4322   -6.5947    0.0000 C   0  0  3  0  0  0           0  0  0
    1.1490   -7.0076    0.0000 C   0  0  0  0  0  0           0  0  0
    1.8583   -6.5933    0.0000 C   0  0  0  0  0  0           0  0  0
    1.8564   -5.7680    0.0000 C   0  0  0  0  0  0           0  0  0
    1.1390   -5.3586    0.0000 C   0  0  0  0  0  0           0  0  0
    0.4235   -5.7746    0.0000 C   0  0  0  0  0  0           0  0  0
    0.4424   -8.2505    0.0000 C   0  0  0  0  0  0           0  0  0
    0.4442   -9.0755    0.0000 O   0  0  0  0  0  0           0  0  0
    1.1559   -7.8364    0.0000 N   0  0  0  0  0  0           0  0  0
    1.8704   -8.2481    0.0000 C   0  0  2  0  0  0           0  0  0
    2.2360   -7.5039    0.0000 C   0  0  0  0  0  0           0  0  0
    2.6013   -6.7611    0.0000 N   0  0  0  0  0  0           0  0  0
    1.5644   -9.0119    0.0000 C   0  0  0  0  0  0           0  0  0
    2.3380   -9.4955    0.0000 C   0  0  0  0  0  0           0  0  0
    2.9827   -8.9806    0.0000 N   0  0  3  0  0  0           0  0  0
    2.6921   -8.2085    0.0000 C   0  0  0  0  0  0           0  0  0
    3.7781   -9.1994    0.0000 C   0  0  0  0  0  0           0  0  0
    3.9863   -9.9977    0.0000 C   0  0  0  0  0  0           0  0  0
    4.9876  -11.0094    0.0000 C   0  0  0  0  0  0           0  0  0
    5.7801  -11.2253    0.0000 C   0  0  0  0  0  0           0  0  0
    6.3646  -10.6458    0.0000 C   0  0  0  0  0  0           0  0  0
    6.1511   -9.8474    0.0000 C   0  0  0  0  0  0           0  0  0
    5.3589   -9.6352    0.0000 C   0  0  0  0  0  0           0  0  0
 16 17  1  0     0  0
 17 18  1  0     0  0
  2  7  1  0     0  0
 11 19  1  0     0  0
  8 10  2  0     0  0
 19 20  2  0     0  0
  3  4  1  0     0  0
 19 21  1  0     0  0
  9 11  1  0     0  0
 22 21  1  1     0  0
  4  5  1  0     0  0
 22 23  1  0     0  0
 11 12  1  1     0  0
 23 24  3  0     0  0
  5  6  1  0     0  0
 12 13  1  0     0  0
 13 14  1  0     0  0
  6  7  1  0     0  0
 25 26  1  0     0  0
 26 27  1  0     0  0
 27 28  1  0     0  0
 22 25  1  0     0  0
 22 28  1  0     0  0
 27 29  1  0     0  0
  6  8  1  0     0  0
 29 30  1  0     0  0
 30  1  1  0     0  0
  2  3  1  0     0  0
  1 31  2  0     0  0
  8  9  1  0     0  0
 31 32  1  0     0  0
 13 18  1  0     0  0
 32 33  2  0     0  0
 14 15  1  0     0  0
 33 34  1  0     0  0
 15 16  1  0     0  0
 34 35  2  0     0  0
 35  1  1  0     0  0
M  END