
  SciTegic01061414252D

  9  9  0  0  0  0            999 V2000
    2.4171  -16.5213    0.0000 C   0  0
    2.4160  -17.3408    0.0000 C   0  0
    3.1240  -17.7498    0.0000 N   0  0
    3.8337  -17.3403    0.0000 C   0  0
    3.8309  -16.5177    0.0000 C   0  0
    3.1222  -16.1124    0.0000 N   0  0
    4.5370  -16.1064    0.0000 C   0  0
    5.2463  -16.5123    0.0000 N   0  0
    4.5340  -15.2892    0.0000 S   0  0
  1  2  2  0
  2  3  1  0
  3  4  2  0
  4  5  1  0
  5  6  2  0
  6  1  1  0
  5  7  1  0
  7  8  1  0
  7  9  2  0
M  END