
  SciTegic02271514372D

 65 68  0  0  0  0            999 V2000
   12.5257   -8.2365    0.0000 C   0  0  1  0  0  0
   12.5034   -7.4184    0.0000 C   0  0
   13.2000   -6.9889    0.0000 C   0  0
   21.7695   -9.4708    0.0000 O   0  0
   19.6343   -8.2375    0.0000 C   0  0
   21.7695   -8.6500    0.0000 C   0  0
   13.2370   -9.4708    0.0000 O   0  0
   18.9226   -8.6500    0.0000 C   0  0  2  0  0  0
   16.0839   -8.6500    0.0000 N   0  0
   11.1067   -8.2387    0.0000 C   0  0
   15.3722   -8.2375    0.0000 C   0  0
   14.6563   -9.4708    0.0000 C   0  0
   18.2108   -8.2375    0.0000 N   0  0
   21.0577   -8.2375    0.0000 C   0  0  1  0  0  0
   15.3708  -10.7001    0.0000 C   0  0
   19.6329  -10.7001    0.0000 C   0  0
   17.5032   -9.4708    0.0000 O   0  0
   10.3970   -8.6524    0.0000 O   0  0
   22.4770   -8.2375    0.0000 O   0  0
   18.9226   -9.4708    0.0000 C   0  0
   16.7915   -7.4166    0.0000 C   0  0
   16.0811   -9.4708    0.0000 C   0  0
   20.3432   -9.4708    0.0000 C   0  0
   14.6563   -8.6500    0.0000 C   0  0  1  0  0  0
   15.3722   -7.4166    0.0000 O   0  0
    9.6860   -8.2411    0.0000 C   0  0
   15.3708   -9.8792    0.0000 C   0  0
   11.1053   -7.4178    0.0000 O   0  0
   13.2370   -8.6500    0.0000 C   0  0
   20.3460   -8.6500    0.0000 N   0  0
    8.9722   -8.6548    0.0000 C   0  0
   16.7915   -8.2375    0.0000 C   0  0  1  0  0  0
   19.6343   -7.4166    0.0000 O   0  0
   17.5032   -8.6500    0.0000 C   0  0
    8.9680   -7.8290    0.0000 C   0  0
   13.9446   -8.2375    0.0000 N   0  0
    9.6846   -7.4202    0.0000 C   0  0
   11.8177   -8.6500    0.0000 N   0  0
   19.6329   -9.8792    0.0000 C   0  0
   13.9181   -7.3806    0.0000 C   0  0
   14.6142   -6.9518    0.0000 C   0  0
   14.5909   -6.1328    0.0000 C   0  0
   13.8657   -5.7446    0.0000 C   0  0
   13.1725   -6.1757    0.0000 C   0  0
   17.4992   -7.0080    0.0000 C   0  0
   18.2066   -7.4193    0.0000 C   0  0
   18.9138   -7.0114    0.0000 C   0  0
   18.9143   -6.1934    0.0000 C   0  0
   18.2016   -5.7849    0.0000 C   0  0
   17.4973   -6.1952    0.0000 C   0  0
   21.0577   -7.4203    0.0000 C   0  0
   21.7654   -7.0117    0.0000 C   0  0
   22.4683   -7.4236    0.0000 C   0  0
   23.1755   -7.0156    0.0000 C   0  0
   23.1759   -6.1976    0.0000 C   0  0
   22.4632   -5.7891    0.0000 C   0  0
   21.7589   -6.1994    0.0000 C   0  0
   15.2859   -5.7030    0.0000 C   0  0
   16.0057   -6.0900    0.0000 O   0  0
   15.2612   -4.8862    0.0000 C   0  0
   15.9548   -4.4590    0.0000 C   0  0
   15.9304   -3.6429    0.0000 C   0  0
   15.2101   -3.2551    0.0000 C   0  0
   14.5129   -3.6894    0.0000 C   0  0
   14.5407   -4.5040    0.0000 C   0  0
  1  2  1  0
  2  3  1  0
  6 19  1  0
 39 16  1  0
 27 15  1  0
 34 13  1  0
 29  7  2  0
 24 11  1  0
 26 37  1  0
 29 36  1  0
 26 31  1  0
 27 22  1  0
  8  5  1  0
 13  8  1  0
 26 35  1  0
 39 23  1  0
  8 20  1  1
 10 18  1  0
  9 32  1  0
 30 14  1  0
 18 26  1  0
 12 27  1  0
 14  6  1  1
 24 12  1  1
  5 30  1  0
 11  9  1  0
  5 33  2  0
 32 21  1  0
 11 25  2  0
 10 28  2  0
 20 39  1  0
 32 34  1  1
 38  1  1  0
  1 29  1  1
 36 24  1  0
 34 17  2  0
 38 10  1  0
  6  4  2  0
  3 40  2  0
 40 41  1  0
 41 42  2  0
 42 43  1  0
 43 44  2  0
 44  3  1  0
 21 45  1  0
 45 46  2  0
 46 47  1  0
 47 48  1  0
 48 49  1  0
 49 50  1  0
 50 45  1  0
 14 51  1  0
 51 52  1  0
 52 53  2  0
 53 54  1  0
 54 55  2  0
 55 56  1  0
 56 57  2  0
 57 52  1  0
 42 58  1  0
 58 59  2  0
 58 60  1  0
 60 61  2  0
 61 62  1  0
 62 63  2  0
 63 64  1  0
 64 65  2  0
 65 60  1  0
M  END