
  SciTegic07191012252D

 26 29  0  0  1  0            999 V2000
    4.3542   -2.9417    0.0000 C   0  0  2  0  0  0
    4.7667   -3.6667    0.0000 N   0  0
    4.3542   -2.1125    0.0000 C   0  0  1  0  0  0
    5.7917   -2.1125    0.0000 C   0  0
    5.0792   -1.6917    0.0000 N   0  0
    3.6375   -3.3542    0.0000 C   0  0
    2.9167   -2.9417    0.0000 C   0  0  1  0  0  0
    3.6375   -1.6917    0.0000 C   0  0
    6.5125   -1.6917    0.0000 C   0  0
    5.7917   -2.9417    0.0000 O   0  0
    2.6875   -3.7500    0.0000 O   0  0
    2.9167   -2.1125    0.0000 C   0  0
    4.4167   -4.4167    0.0000 C   0  0
    5.5792   -3.7542    0.0000 C   0  0
    7.2250   -2.1125    0.0000 C   0  0
    5.0792   -0.8667    0.0000 C   0  0
    2.2417   -2.4750    0.0000 C   0  0
    1.8542   -3.7542    0.0000 C   0  0
    7.9375   -1.6917    0.0000 C   0  0
    7.2250   -2.9375    0.0000 C   0  0
    5.7375   -4.5667    0.0000 C   0  0
    5.0292   -4.9667    0.0000 C   0  0
    1.5792   -2.9792    0.0000 C   0  0
    7.9417   -3.3542    0.0000 C   0  0
    8.6625   -2.1042    0.0000 C   0  0
    8.6625   -2.9375    0.0000 C   0  0
  1  2  1  1
  3  1  1  0
  4  5  1  0
  3  5  1  6
  6  1  1  0
  7  6  1  0
  8  3  1  0
  9  4  1  0
 10  4  2  0
  7 11  1  1
 12  7  1  0
 13  2  1  0
 14  2  1  0
 15  9  1  0
 16  5  1  0
  7 17  1  6
 18 11  1  0
 19 15  1  0
 20 15  2  0
 21 14  1  0
 22 13  1  0
 23 17  1  0
 24 20  1  0
 25 19  2  0
 26 24  2  0
 12  8  1  0
 21 22  1  0
 18 23  1  0
 26 25  1  0
M  END