
          11280715342D 1   1.00000     0.00000     0

 29 31  0     0  0            999 V2000
   -0.9875   -5.0667    0.0000 N   0  0  3  0  0  0           0  0  0
   -1.1208   -4.3417    0.0000 C   0  0  0  0  0  0           0  0  0
   -0.5708   -5.7792    0.0000 C   0  0  0  0  0  0           0  0  0
    3.1500   -7.9167    0.0000 S   0  0  3  0  0  0           0  0  0
   -2.5208   -4.0292    0.0000 O   0  0  0  0  0  0           0  0  0
   -1.5958   -5.6292    0.0000 C   0  0  0  0  0  0           0  0  0
   -1.7333   -3.7792    0.0000 C   0  0  0  0  0  0           0  0  0
   -2.4083   -5.5125    0.0000 C   0  0  0  0  0  0           0  0  0
   -2.8208   -4.8042    0.0000 C   0  0  0  0  0  0           0  0  0
    0.2542   -5.7750    0.0000 N   0  0  0  0  0  0           0  0  0
   -0.3375   -4.0917    0.0000 C   0  0  0  0  0  0           0  0  0
    2.4292   -8.3292    0.0000 O   0  0  0  0  0  0           0  0  0
    3.5667   -8.6375    0.0000 O   0  0  0  0  0  0           0  0  0
   -0.9833   -6.5000    0.0000 O   0  0  0  0  0  0           0  0  0
    2.7292   -7.2000    0.0000 C   0  0  0  0  0  0           0  0  0
   -1.5583   -2.9750    0.0000 C   0  0  0  0  0  0           0  0  0
    1.4917   -6.4875    0.0000 C   0  0  0  0  0  0           0  0  0
    1.9042   -7.2000    0.0000 C   0  0  0  0  0  0           0  0  0
    1.9042   -5.7750    0.0000 O   0  0  0  0  0  0           0  0  0
   -0.1583   -3.2792    0.0000 C   0  0  0  0  0  0           0  0  0
    0.6667   -6.4875    0.0000 C   0  0  0  0  0  0           0  0  0
    3.8667   -7.5000    0.0000 C   0  0  0  0  0  0           0  0  0
   -0.7708   -2.7250    0.0000 C   0  0  0  0  0  0           0  0  0
    0.6417   -3.0250    0.0000 Cl  0  0  0  0  0  0           0  0  0
   -2.8208   -6.2292    0.0000 C   0  0  0  0  0  0           0  0  0
   -3.6458   -4.8000    0.0000 C   0  0  0  0  0  0           0  0  0
    4.5875   -7.9125    0.0000 C   0  0  0  0  0  0           0  0  0
   -3.6500   -6.2292    0.0000 C   0  0  0  0  0  0           0  0  0
   -4.0625   -5.5125    0.0000 C   0  0  0  0  0  0           0  0  0
  2  1  1  0     0  0
  3  1  1  0     0  0
  4 15  1  0     0  0
  5  7  1  0     0  0
  6  1  1  0     0  0
  7  2  1  0     0  0
  8  6  1  0     0  0
  9  8  2  0     0  0
 10  3  1  0     0  0
 11  2  2  0     0  0
 12  4  2  0     0  0
 13  4  2  0     0  0
 14  3  2  0     0  0
 15 18  1  0     0  0
 16  7  2  0     0  0
 17 21  1  0     0  0
 18 17  1  0     0  0
 19 17  2  0     0  0
 20 11  1  0     0  0
 21 10  1  0     0  0
 22  4  1  0     0  0
 23 20  2  0     0  0
 24 20  1  0     0  0
 25  8  1  0     0  0
 26  9  1  0     0  0
 27 22  1  0     0  0
 28 25  2  0     0  0
 29 28  1  0     0  0
  9  5  1  0     0  0
 23 16  1  0     0  0
 26 29  2  0     0  0
M  END