
          11280715362D 1   1.00000     0.00000     0

 13 14  0     0  0            999 V2000
   -2.3750    1.4375    0.0000 C   0  0  3  0  0  0           0  0  0
   -2.8250    1.6958    0.0000 O   0  0  0  0  0  0           0  0  0
   -1.9208    1.6958    0.0000 O   0  0  0  0  0  0           0  0  0
   -1.9250    1.1833    0.0000 C   0  0  0  0  0  0           0  0  0
   -2.8333    1.1833    0.0000 C   0  0  0  0  0  0           0  0  0
   -3.2833    1.4500    0.0000 N   0  0  0  0  0  0           0  0  0
   -1.9208    2.2208    0.0000 C   0  0  0  0  0  0           0  0  0
   -2.8250    2.2208    0.0000 C   0  0  0  0  0  0           0  0  0
   -1.9333    0.6708    0.0000 C   0  0  0  0  0  0           0  0  0
   -1.4833    1.4375    0.0000 C   0  0  0  0  0  0           0  0  0
   -1.0375    1.1833    0.0000 C   0  0  0  0  0  0           0  0  0
   -1.4833    0.4083    0.0000 C   0  0  0  0  0  0           0  0  0
   -1.0375    0.6625    0.0000 C   0  0  0  0  0  0           0  0  0
  2  1  1  0     0  0
  3  1  1  0     0  0
  4  1  1  0     0  0
  5  1  1  0     0  0
  6  5  1  0     0  0
  7  3  1  0     0  0
  8  2  1  0     0  0
  9  4  2  0     0  0
 10  4  1  0     0  0
 11 10  2  0     0  0
 12  9  1  0     0  0
 13 11  1  0     0  0
  7  8  1  0     0  0
 13 12  2  0     0  0
M  END