
  SciTegic07091215302D

 25 28  0  0  0  0            999 V2000
   -8.1027    4.5375    0.0000 C   0  0
   -7.8892    5.3344    0.0000 C   0  0
   -7.3058    4.9573    0.0000 C   0  0
   -6.4219    4.9573    0.0000 C   0  0
   -6.0683    4.0366    0.0000 C   0  0  1  0  0  0
   -8.5152    3.8230    0.0000 N   0  0
   -7.7183    4.0366    0.0000 C   0  0
   -6.8357    4.6626    0.0000 C   0  0
   -6.0683    3.2116    0.0000 O   0  0
   -6.7828    2.7991    0.0000 C   0  0
   -6.7828    1.9741    0.0000 C   0  0
   -7.4972    3.2116    0.0000 O   0  0
   -7.4972    1.5616    0.0000 C   0  0
   -6.0683    1.5616    0.0000 C   0  0
   -8.2117    1.9741    0.0000 C   0  0
   -8.9262    1.5616    0.0000 C   0  0
   -8.9262    0.7366    0.0000 C   0  0
   -8.2117    0.3240    0.0000 C   0  0
   -7.4972    0.7365    0.0000 C   0  0
   -6.0683    0.7365    0.0000 C   0  0
   -5.3538    0.3240    0.0000 C   0  0
   -4.6393    0.7366    0.0000 C   0  0
   -4.6393    1.5616    0.0000 C   0  0
   -5.3538    1.9741    0.0000 C   0  0
   -9.1697    3.3208    0.0000 C   0  0
  1  2  1  0
  2  3  1  0
  3  4  1  0
  4  5  1  0
  1  6  1  0
  6  7  1  0
  7  3  1  0
  5  8  1  0
  8  1  1  0
  5  9  1  6
  9 10  1  0
 10 11  1  0
 10 12  2  0
 11 13  1  0
 11 14  1  0
 13 15  2  0
 13 19  1  0
 15 16  1  0
 16 17  2  0
 17 18  1  0
 18 19  2  0
 14 20  2  0
 14 24  1  0
 20 21  1  0
 21 22  2  0
 22 23  1  0
 23 24  2  0
  6 25  1  0
M  END