
  SciTegic02211115552D

 37 40  0  0  0  0            999 V2000
    2.8126    0.2062    0.0000 C   0  0
    2.8113   -0.6213    0.0000 C   0  0
    3.5243   -1.0342    0.0000 N   0  0
    4.2436   -0.6208    0.0000 C   0  0
    4.2405    0.2103    0.0000 N   0  0
    3.5223    0.6191    0.0000 C   0  0
    2.0978    0.6182    0.0000 C   0  0
    3.5184    1.4441    0.0000 N   0  0
    4.2309    1.8599    0.0000 C   0  0
    4.9585   -1.0327    0.0000 N   0  0
    5.6726   -0.6195    0.0000 C   0  0
    6.3850   -1.0363    0.0000 C   0  0
    7.0986   -0.6238    0.0000 C   0  0
    7.0983    0.2021    0.0000 C   0  0
    6.3784    0.6137    0.0000 C   0  0
    5.6677    0.1989    0.0000 C   0  0
    7.8118    0.6161    0.0000 O   0  0
    8.5273    0.2053    0.0000 C   0  0
    9.2407    0.6194    0.0000 C   0  0
    9.9560    0.2083    0.0000 N   0  0
    9.9571   -0.6154    0.0000 C   0  0
   10.7428   -0.8671    0.0000 C   0  0
   11.2249   -0.1977    0.0000 C   0  0
   10.7372    0.4677    0.0000 C   0  0
    4.9495    1.4457    0.0000 C   0  0
    5.6616    1.8609    0.0000 C   0  0
    5.6582    2.6867    0.0000 C   0  0
    4.9368    3.0957    0.0000 C   0  0
    4.2277    2.6782    0.0000 C   0  0
    6.3778    1.4513    0.0000 S   0  0
    7.0905    1.8668    0.0000 N   0  0
    7.0871    2.6918    0.0000 C   0  0
    7.7997    3.1073    0.0000 C   0  0
    6.3708    3.1013    0.0000 C   0  0
    7.0812    3.5200    0.0000 C   0  0
    5.9583    0.7425    0.0000 O   0  0
    6.7833    0.7425    0.0000 O   0  0
 17 18  1  0
  8  9  1  0
 18 19  1  0
  4  5  1  0
 19 20  1  0
 20 21  1  0
  4 10  1  0
  2  3  1  0
 10 11  1  0
  5  6  2  0
 21 22  1  0
 22 23  1  0
 23 24  1  0
 24 20  1  0
 11 12  2  0
  9 25  2  0
  6  1  1  0
 25 26  1  0
 12 13  1  0
 26 27  2  0
  1  2  2  0
 27 28  1  0
 13 14  2  0
 28 29  2  0
 29  9  1  0
  1  7  1  0
 26 30  1  0
 14 15  1  0
 30 31  1  0
  3  4  2  0
 31 32  1  0
 15 16  2  0
 32 33  1  0
 16 11  1  0
 32 34  1  0
  6  8  1  0
 32 35  1  0
 14 17  1  0
 30 36  2  0
 30 37  2  0
M  END