
          11280715582D 1   1.00000     0.00000     0

 69 75  0     1  0            999 V2000
    5.1042   -6.9292    0.0000 N   0  0  0  0  0  0           0  0  0
    6.8167   -5.2542    0.0000 N   0  0  0  0  0  0           0  0  0
    2.7667   -6.4042    0.0000 N   0  0  0  0  0  0           0  0  0
    6.4417   -5.9917    0.0000 C   0  0  0  0  0  0           0  0  0
    2.2500   -5.7667    0.0000 C   0  0  0  0  0  0           0  0  0
    7.1500   -7.1875    0.0000 C   0  0  0  0  0  0           0  0  0
    4.2875   -7.0167    0.0000 C   0  0  0  0  0  0           0  0  0
    0.5542   -5.7292    0.0000 C   0  0  0  0  0  0           0  0  0
    1.1417   -5.1500    0.0000 C   0  0  0  0  0  0           0  0  0
    5.8542   -6.5750    0.0000 C   0  0  2  0  0  0           0  0  0
   -1.6208   -5.8667    0.0000 C   0  0  1  0  0  0           0  0  0
    6.9292   -4.4417    0.0000 C   0  0  1  0  0  0           0  0  0
    8.4500   -7.4917    0.0000 N   0  0  0  0  0  0           0  0  0
    1.9542   -4.9917    0.0000 C   0  0  2  0  0  0           0  0  0
    6.7750   -3.6292    0.0000 C   0  0  0  0  0  0           0  0  0
    7.6917   -7.8125    0.0000 C   0  0  0  0  0  0           0  0  0
    1.9292   -4.1667    0.0000 N   0  0  0  0  0  0           0  0  0
    3.4792   -6.8292    0.0000 C   0  0  1  0  0  0           0  0  0
   -0.2375   -5.5125    0.0000 N   0  0  3  0  0  0           0  0  0
    3.3542   -2.2375    0.0000 N   0  0  0  0  0  0           0  0  0
    4.1417   -2.0125    0.0000 C   0  0  0  0  0  0           0  0  0
    6.3292   -7.2542    0.0000 C   0  0  0  0  0  0           0  0  0
    7.5792   -6.4792    0.0000 C   0  0  0  0  0  0           0  0  0
    6.3625   -2.9125    0.0000 N   0  0  0  0  0  0           0  0  0
   -0.8250   -6.0917    0.0000 C   0  0  0  0  0  0           0  0  0
    8.3792   -6.6667    0.0000 C   0  0  0  0  0  0           0  0  0
    3.3625   -9.0167    0.0000 C   0  0  0  0  0  0           0  0  0
   -1.9708   -4.5625    0.0000 C   0  0  1  0  0  0           0  0  0
   -2.9708   -5.8250    0.0000 C   0  0  1  0  0  0           0  0  0
   -2.9833   -5.3375    0.0000 C   0  0  2  0  0  0           0  0  0
    7.1125   -6.4875    0.0000 O   0  0  0  0  0  0           0  0  0
    1.5292   -6.1792    0.0000 O   0  0  0  0  0  0           0  0  0
    4.2417   -7.8417    0.0000 O   0  0  0  0  0  0           0  0  0
    0.7625   -6.5292    0.0000 O   0  0  0  0  0  0           0  0  0
    7.7625   -4.4167    0.0000 C   0  0  0  0  0  0           0  0  0
    4.9667   -2.0542    0.0000 C   0  0  0  0  0  0           0  0  0
    2.6750   -2.7042    0.0000 C   0  0  1  0  0  0           0  0  0
   -2.3875   -5.8042    0.0000 C   0  0  0  0  0  0           0  0  0
   -2.3500   -6.3417    0.0000 C   0  0  0  0  0  0           0  0  0
   -1.3583   -5.0917    0.0000 C   0  0  0  0  0  0           0  0  0
    7.3667   -3.3917    0.0000 O   0  0  0  0  0  0           0  0  0
    4.0542   -1.1875    0.0000 O   0  0  0  0  0  0           0  0  0
    2.5417   -9.1292    0.0000 O   0  0  0  0  0  0           0  0  0
    3.1667   -7.6042    0.0000 C   0  0  0  0  0  0           0  0  0
   -2.7375   -4.5792    0.0000 C   0  0  0  0  0  0           0  0  0
   -2.7083   -5.0167    0.0000 C   0  0  0  0  0  0           0  0  0
   -3.8083   -5.7875    0.0000 C   0  0  0  0  0  0           0  0  0
    2.1792   -3.3750    0.0000 C   0  0  0  0  0  0           0  0  0
   -0.2458   -4.6875    0.0000 N   0  0  0  0  0  0           0  0  0
    5.7375   -2.3667    0.0000 C   0  0  0  0  0  0           0  0  0
    3.6750   -8.2542    0.0000 C   0  0  0  0  0  0           0  0  0
    3.8667   -9.6750    0.0000 N   0  0  0  0  0  0           0  0  0
    2.0917   -2.1167    0.0000 C   0  0  0  0  0  0           0  0  0
    8.1542   -3.6917    0.0000 C   0  0  0  0  0  0           0  0  0
    7.3417   -5.6875    0.0000 C   0  0  0  0  0  0           0  0  0
    8.9500   -6.0667    0.0000 C   0  0  0  0  0  0           0  0  0
    1.2917   -2.3167    0.0000 C   0  0  3  0  0  0           0  0  0
    7.7167   -2.9792    0.0000 C   0  0  0  0  0  0           0  0  0
    8.9792   -3.6667    0.0000 C   0  0  0  0  0  0           0  0  0
    1.0667   -3.1125    0.0000 C   0  0  0  0  0  0           0  0  0
    0.7167   -1.7250    0.0000 C   0  0  0  0  0  0           0  0  0
    7.9042   -5.0792    0.0000 C   0  0  0  0  0  0           0  0  0
    8.7125   -5.2750    0.0000 C   0  0  0  0  0  0           0  0  0
    8.1167   -2.2542    0.0000 C   0  0  0  0  0  0           0  0  0
    9.3750   -2.9375    0.0000 C   0  0  0  0  0  0           0  0  0
    8.9417   -2.2375    0.0000 C   0  0  0  0  0  0           0  0  0
   -1.7083   -3.7917    0.0000 H   0  0  0  0  0  0           0  0  0
   -3.2708   -6.5917    0.0000 H   0  0  0  0  0  0           0  0  0
   -3.6125   -4.8125    0.0000 H   0  0  0  0  0  0           0  0  0
  2  4  1  0     0  0
  3 18  1  0     0  0
  4 10  1  0     0  0
  5  3  1  0     0  0
  6 22  1  0     0  0
  7  1  1  0     0  0
  8  9  1  0     0  0
 14  9  1  6     0  0
 10  1  1  0     0  0
 11 25  1  6     0  0
 12  2  1  0     0  0
 13 16  1  0     0  0
 14  5  1  0     0  0
 15 12  1  0     0  0
 16  6  2  0     0  0
 17 14  1  0     0  0
 18  7  1  0     0  0
 19  8  1  0     0  0
 20 37  1  0     0  0
 21 36  1  0     0  0
 10 22  1  6     0  0
 23  6  1  0     0  0
 24 15  1  0     0  0
 25 19  1  0     0  0
 26 23  2  0     0  0
 27 51  1  0     0  0
 28 40  1  0     0  0
 29 39  1  0     0  0
 30 38  1  0     0  0
 31  4  2  0     0  0
 32  5  2  0     0  0
 33  7  2  0     0  0
 34  8  2  0     0  0
 12 35  1  1     0  0
 36 50  1  0     0  0
 37 48  1  0     0  0
 38 11  1  0     0  0
 39 11  1  0     0  0
 40 11  1  0     0  0
 41 15  2  0     0  0
 42 21  2  0     0  0
 43 27  2  0     0  0
 18 44  1  1     0  0
 45 28  1  0     0  0
 46 28  1  0     0  0
 47 29  1  0     0  0
 48 17  1  0     0  0
 49 19  1  0     0  0
 50 24  1  0     0  0
 51 44  1  0     0  0
 52 27  1  0     0  0
 37 53  1  1     0  0
 54 35  1  0     0  0
 55 23  1  0     0  0
 56 26  1  0     0  0
 57 53  1  0     0  0
 58 54  2  0     0  0
 59 54  1  0     0  0
 60 57  1  0     0  0
 61 57  1  0     0  0
 62 55  2  0     0  0
 63 62  1  0     0  0
 64 58  1  0     0  0
 65 59  2  0     0  0
 66 65  1  0     0  0
 28 67  1  1     0  0
 29 68  1  1     0  0
 30 69  1  6     0  0
 26 13  1  0     0  0
 56 63  2  0     0  0
 64 66  2  0     0  0
 20 21  1  0     0  0
 29 46  1  0     0  0
 30 45  1  0     0  0
 47 30  1  0     0  0
M  END