
  SciTegic10261211122D

 90 91  0  0  0  0            999 V2000
    7.1292   -5.3083    0.0000 N   0  3
    0.6625   -4.9708    0.0000 C   0  0
    6.3792   -4.9708    0.0000 C   0  0
   -1.8667   -2.5458    0.0000 S   0  0
    8.9083   -2.5458    0.0000 S   0  0
   -0.0958   -5.3083    0.0000 N   0  0
    0.6625   -2.5083    0.0000 S   0  0
    7.2667   -3.9792    0.0000 C   0  0
   -0.2250   -3.9833    0.0000 C   0  0
    7.6792   -4.6917    0.0000 C   0  0
    0.5750   -4.1542    0.0000 C   0  0
    6.4583   -4.1500    0.0000 C   0  0
   -0.6458   -4.6917    0.0000 C   0  0
   -2.1833   -8.2333    0.0000 S   0  0
    3.5208   -4.9833    0.0000 C   0  0
    1.3750   -5.3875    0.0000 C   0  0
    5.6667   -5.3833    0.0000 C   0  0
    8.4958   -3.2625    0.0000 C   0  0
   -1.4583   -3.2625    0.0000 C   0  0
    7.6750   -3.2667    0.0000 C   0  0
   -0.6333   -3.2667    0.0000 C   0  0
   10.0583   -8.5458    0.0000 P   0  0
   11.4833   -8.4292    0.0000 C   0  0
    2.8042   -5.3917    0.0000 C   0  0
    4.2375   -5.3875    0.0000 C   0  0
    2.0917   -4.9750    0.0000 C   0  0
    4.9500   -4.9750    0.0000 C   0  0
   11.5500   -9.2500    0.0000 C   0  0
    1.3750   -2.9167    0.0000 C   0  0
    7.9417   -9.8292    0.0000 C   0  0
    7.2000   -8.6042    0.0000 N   0  0
    8.5000   -4.6917    0.0000 C   0  0
   -1.4625   -4.6917    0.0000 C   0  0
    3.5208   -4.1583    0.0000 O   0  0
    9.3125   -1.8292    0.0000 O   0  5
   -2.2875   -1.8292    0.0000 O   0  5
   -0.0542   -2.0917    0.0000 O   0  5
    7.9250   -9.0042    0.0000 C   0  0  1  0  0  0
   10.7375   -8.0750    0.0000 C   0  0
   -2.6000   -8.9417    0.0000 O   0  5
    8.1875   -2.1417    0.0000 O   0  0
   -1.1500   -2.1333    0.0000 O   0  0
   -2.5750   -2.9667    0.0000 O   0  0
    9.6250   -2.9542    0.0000 O   0  0
    0.2500   -3.2208    0.0000 O   0  0
    1.0750   -1.7917    0.0000 O   0  0
    6.4958   -9.0333    0.0000 C   0  0
   -1.4167   -8.5375    0.0000 O   0  0
   -2.9542   -7.9375    0.0000 O   0  0
   12.7750   -6.6667    0.0000 C   0  0
    8.6292   -8.5750    0.0000 C   0  0
    9.6083   -7.8542    0.0000 O   0  0
    8.9125   -3.9792    0.0000 C   0  0
   -1.8708   -3.9792    0.0000 C   0  0
   12.1625   -7.9583    0.0000 C   0  0
   12.2958   -9.6042    0.0000 O   0  0
    8.6667  -10.2250    0.0000 O   0  0
    9.3500   -8.9708    0.0000 C   0  0
    7.1458   -6.1333    0.0000 C   0  0
    6.5125   -9.8583    0.0000 O   0  0
   12.7083   -5.8458    0.0000 O   0  0
    1.3750   -3.7458    0.0000 C   0  0
    2.0875   -2.5042    0.0000 C   0  0
    2.8042   -3.7458    0.0000 C   0  0
   10.5042   -9.2375    0.0000 O   0  0
   -0.2667   -6.1167    0.0000 C   0  0
   12.0958   -7.1375    0.0000 C   0  0
   -2.0125   -7.4292    0.0000 C   0  0
   10.8708   -9.7208    0.0000 O   0  0
    7.2375  -10.2583    0.0000 O   0  0
    1.3708   -4.3667    0.0000 C   0  0
    0.7875   -3.3542    0.0000 C   0  0
    5.6583   -4.3625    0.0000 C   0  0
    6.2375   -3.3500    0.0000 C   0  0
   13.5208   -7.0208    0.0000 O   0  5
    2.8042   -2.9167    0.0000 C   0  0
    2.0958   -4.1500    0.0000 C   0  0
    4.2333   -6.2167    0.0000 C   0  0
    2.8042   -6.2125    0.0000 C   0  0
    3.5167   -6.6292    0.0000 C   0  0
    5.7708   -8.6375    0.0000 C   0  0
    6.4417   -6.5583    0.0000 C   0  0
   -1.0542   -6.3667    0.0000 C   0  0
   -1.2250   -7.1750    0.0000 C   0  0
    5.7542   -7.8125    0.0000 C   0  0
    6.4583   -7.3833    0.0000 C   0  0
   -4.3375   -7.9417    0.0000 Na  0  3
    7.7708   -0.1375    0.0000 Na  0  3
   -2.2792   -0.6042    0.0000 Na  0  3
    0.6500   -0.8542    0.0000 Na  0  3
  2 16  2  0
  3  1  2  0
  4 19  1  0
  5 18  1  0
  6  2  1  0
  7 29  1  0
  8 10  2  0
  9 11  1  0
 10  1  1  0
 11  2  1  0
 12  3  1  0
 13  6  1  0
 14 68  1  0
 15 25  2  0
 16 26  1  0
 17  3  1  0
 18 53  1  0
 19 21  2  0
 20  8  1  0
 21  9  1  0
 22 58  1  0
 23 39  1  0
 24 15  1  0
 25 27  1  0
 26 24  2  0
 27 17  2  0
 28 23  1  0
 29 63  1  0
 30 38  1  0
 31 47  1  0
 32 10  1  0
 33 13  1  0
 34 15  1  0
 35  5  1  0
 36  4  1  0
 37  7  1  0
 38 31  1  1
 39 22  1  0
 40 14  1  0
 41  5  2  0
 42  4  2  0
 43  4  2  0
 44  5  2  0
 45  7  2  0
 46  7  2  0
 47 81  1  0
 48 14  2  0
 49 14  2  0
 50 67  1  0
 51 38  1  0
 52 22  2  0
 53 32  2  0
 54 33  2  0
 55 23  1  0
 56 28  2  0
 57 30  2  0
 58 51  1  0
 59  1  1  0
 60 47  2  0
 61 50  2  0
 62 77  1  0
 63 76  2  0
 64 34  1  0
 65 22  1  0
 66  6  1  0
 67 55  1  0
 68 84  1  0
 69 28  1  0
 70 30  1  0
 71 11  1  0
 72 11  1  0
 73 12  1  0
 74 12  1  0
 75 50  1  0
 76 64  1  0
 77 64  2  0
 78 25  1  0
 79 80  1  0
 80 78  1  0
 81 85  1  0
 82 59  1  0
 83 66  1  0
 84 83  1  0
 85 86  1  0
 86 82  1  0
 12  8  1  0
 20 18  2  0
 79 24  1  0
 62 29  2  0
  9 13  2  0
 54 19  1  0
M  CHG  8   1   1  35  -1  36  -1  37  -1  40  -1  75  -1  87   1  88   1
M  CHG  2  89   1  90   1
M  END