
  SciTegic12231509382D

 40 44  0  0  0  0            999 V2000
    7.1277  -10.7249    0.0000 C   0  0  1  0  0  0
   10.1790  -12.0866    0.0000 C   0  0
   15.1371  -11.3372    0.0000 C   0  0  2  0  0  0
   12.7236  -12.7273    0.0000 O   0  0
   15.1337  -10.5201    0.0000 O   0  0
    6.7296  -11.4510    0.0000 C   0  0
   18.3630   -9.2389    0.0000 C   0  0
   11.6158  -12.8845    0.0000 O   0  0
   13.5398  -12.6394    0.0000 O   0  0
    7.9390  -10.8854    0.0000 C   0  0  1  0  0  0
    7.0337   -9.9134    0.0000 N   0  0
   16.9370   -8.4164    0.0000 C   0  0
   17.6433   -8.0070    0.0000 C   0  0
   10.8862  -11.6649    0.0000 C   0  0
    7.7781   -9.5631    0.0000 C   0  0
    8.7503  -10.9557    0.0000 H   0  0
   16.9352   -9.2383    0.0000 C   0  0
   13.0598  -11.9735    0.0000 S   0  0
   14.4671  -11.8255    0.0000 C   0  0
    8.0436  -11.7068    0.0000 C   0  0  1  0  0  0
    8.3394  -10.1649    0.0000 N   0  0
    7.2903  -12.0544    0.0000 S   0  0
   17.6415   -7.1861    0.0000 N   0  0
   11.6026  -12.0637    0.0000 C   0  0
   15.9136  -10.2709    0.0000 C   0  0  1  0  0  0
   16.1645   -9.4902    0.0000 N   0  0
    7.9331   -8.7570    0.0000 O   0  0
    8.7599  -12.1057    0.0000 C   0  0
   15.6784   -8.8288    0.0000 C   0  0
    6.3328  -10.5355    0.0000 H   0  0
   17.2145  -10.9316    0.0000 O   0  0
   16.1604   -8.1656    0.0000 N   0  0
   18.3608   -8.4139    0.0000 N   0  0
   12.3056  -11.6417    0.0000 N   0  0
   16.1668  -12.3765    0.0000 O   0  0
   15.9157  -11.5960    0.0000 C   0  0  1  0  0  0
   13.7216  -11.4935    0.0000 N   0  0
   17.6437   -9.6489    0.0000 N   0  0
   16.3936  -10.9328    0.0000 C   0  0  2  0  0  0
    9.4585  -11.6874    0.0000 C   0  0
 20 10  1  0
 14 24  1  0
 26 17  1  0
 29 26  1  0
 39 31  1  6
  3 36  1  0
 12 17  2  0
 12 32  1  0
 17 38  1  0
 18 37  1  0
 24 34  1  0
 25 26  1  1
  3 19  1  1
  1 30  1  1
 22 20  1  0
 33 13  2  0
  5  3  1  0
 10  1  1  0
 39 25  1  0
 36 35  1  6
 37 19  1  0
 40  2  1  0
  4 18  2  0
 34 18  1  0
 10 21  1  0
 20 28  1  6
  1  6  1  0
 15 27  2  0
 32 29  2  0
 36 39  1  0
 18  9  2  0
 13 12  1  0
 28 40  1  0
 13 23  1  0
 38  7  2  0
  6 22  1  0
 21 15  1  0
  2 14  1  0
 10 16  1  1
 25  5  1  0
 11  1  1  0
  7 33  1  0
 15 11  1  0
 24  8  2  0
M  END