
  SciTegic04091414152D

 21 23  0  0  0  0            999 V2000
   13.1139   -2.1527    0.0000 C   0  0
   12.2968   -2.1397    0.0000 C   0  0
   12.0301   -2.9123    0.0000 C   0  0
   12.6854   -3.4049    0.0000 N   0  0
   13.3517   -2.9332    0.0000 N   0  0
   12.6770   -4.2197    0.0000 C   0  0
   11.9619   -4.6175    0.0000 C   0  0
   11.9499   -5.4338    0.0000 C   0  0
   12.6522   -5.8533    0.0000 C   0  0
   13.3681   -5.4505    0.0000 C   0  0
   13.3766   -4.6355    0.0000 C   0  0
   13.6063   -1.4985    0.0000 C   0  0
   14.4174   -1.5978    0.0000 O   0  0
   13.2867   -0.7464    0.0000 O   0  0
   11.2528   -3.1506    0.0000 C   0  0
   10.6551   -2.5917    0.0000 C   0  0
    9.8743   -2.8302    0.0000 C   0  0
    9.6901   -3.6273    0.0000 C   0  0
   10.2927   -4.1854    0.0000 C   0  0
   11.0712   -3.9439    0.0000 C   0  0
   11.2362   -5.8319    0.0000 C   0  0
  1  2  1  0
  2  3  2  0
  3  4  1  0
  4  5  1  0
  5  1  2  0
  6  7  2  0
  7  8  1  0
  8  9  2  0
  9 10  1  0
 10 11  2  0
 11  6  1  0
  4  6  1  0
 12 13  1  0
 12 14  2  0
  1 12  1  0
 15 16  2  0
 16 17  1  0
 17 18  2  0
 18 19  1  0
 19 20  2  0
 20 15  1  0
  3 15  1  0
  8 21  1  0
M  END