
          05080814042D 1   1.00000     0.00000     0

 39 43  0     1  0            999 V2000
   -4.7521   -3.7896    0.0000 C   0  0  0  0  0  0           0  0  0
   -4.7532   -4.6157    0.0000 C   0  0  0  0  0  0           0  0  0
   -4.0395   -5.0278    0.0000 C   0  0  0  0  0  0           0  0  0
   -4.0413   -3.3775    0.0000 C   0  0  0  0  0  0           0  0  0
   -3.3271   -3.7860    0.0000 C   0  0  0  0  0  0           0  0  0
   -3.3237   -4.6177    0.0000 C   0  0  0  0  0  0           0  0  0
   -2.6057   -5.0283    0.0000 C   0  0  0  0  0  0           0  0  0
   -2.6125   -3.3649    0.0000 C   0  0  0  0  0  0           0  0  0
   -1.8899   -3.7801    0.0000 C   0  0  2  0  0  0           0  0  0
   -1.8888   -4.6135    0.0000 C   0  0  2  0  0  0           0  0  0
   -1.1705   -5.0269    0.0000 N   0  0  3  0  0  0           0  0  0
   -0.4488   -4.6117    0.0000 C   0  0  0  0  0  0           0  0  0
   -0.4498   -3.7782    0.0000 C   0  0  1  0  0  0           0  0  0
   -1.1727   -3.3602    0.0000 C   0  0  0  0  0  0           0  0  0
   -1.1706   -5.8506    0.0000 C   0  0  0  0  0  0           0  0  0
    0.2634   -3.3662    0.0000 C   0  0  0  0  0  0           0  0  0
    0.9768   -3.7778    0.0000 N   0  0  3  0  0  0           0  0  0
    0.2632   -2.5426    0.0000 O   0  0  0  0  0  0           0  0  0
    0.9713   -4.6063    0.0000 C   0  0  0  0  0  0           0  0  0
    1.6807   -5.0178    0.0000 C   0  0  0  0  0  0           0  0  0
    2.3963   -4.6093    0.0000 N   0  0  3  0  0  0           0  0  0
    2.3980   -3.7847    0.0000 C   0  0  0  0  0  0           0  0  0
    1.6842   -3.3686    0.0000 C   0  0  0  0  0  0           0  0  0
   -1.8969   -5.4369    0.0000 H   0  0  0  0  0  0           0  0  0
   -1.8969   -2.9535    0.0000 H   0  0  0  0  0  0           0  0  0
   -4.0440   -2.5533    0.0000 O   0  0  0  0  0  0           0  0  0
   -4.7586   -2.1438    0.0000 S   0  0  3  0  0  0           0  0  0
   -5.4744   -1.7305    0.0000 C   0  0  0  0  0  0           0  0  0
   -5.1693   -2.8578    0.0000 O   0  0  0  0  0  0           0  0  0
   -4.3454   -1.4314    0.0000 O   0  0  0  0  0  0           0  0  0
    3.1060   -5.0209    0.0000 C   0  0  0  0  0  0           0  0  0
    3.1017   -5.8457    0.0000 C   0  0  0  0  0  0           0  0  0
    3.8128   -6.2600    0.0000 C   0  0  0  0  0  0           0  0  0
    4.5285   -5.8506    0.0000 C   0  0  0  0  0  0           0  0  0
    4.5288   -5.0226    0.0000 C   0  0  0  0  0  0           0  0  0
    3.8172   -4.6121    0.0000 C   0  0  0  0  0  0           0  0  0
    5.2462   -6.2651    0.0000 N   0  3  0  0  0  0           0  0  0
    5.9605   -5.8549    0.0000 O   0  0  0  0  0  0           0  0  0
    5.2445   -7.0887    0.0000 O   0  5  0  0  0  0           0  0  0
 17 19  1  0     0  0
  9  8  1  0     0  0
  9 10  1  0     0  0
  5  4  2  0     0  0
  4  1  1  0     0  0
  5  6  1  0     0  0
 17 23  1  0     0  0
 19 20  1  0     0  0
 20 21  1  0     0  0
 21 22  1  0     0  0
 22 23  1  0     0  0
 10 24  1  1     0  0
  2  3  1  0     0  0
  9 25  1  6     0  0
  3  6  2  0     0  0
  4 26  1  0     0  0
  9 14  1  0     0  0
 26 27  1  0     0  0
 10 11  1  0     0  0
 27 28  1  0     0  0
 11 12  1  0     0  0
 27 29  2  0     0  0
 12 13  1  0     0  0
 27 30  2  0     0  0
 13 14  1  0     0  0
  1  2  2  0     0  0
 31 32  2  0     0  0
 11 15  1  0     0  0
 32 33  1  0     0  0
  5  8  1  0     0  0
 33 34  2  0     0  0
 13 16  1  1     0  0
 34 35  1  0     0  0
  6  7  1  0     0  0
 35 36  2  0     0  0
 36 31  1  0     0  0
 21 31  1  0     0  0
 16 17  1  0     0  0
  7 10  1  0     0  0
 16 18  2  0     0  0
 37 38  2  0     0  0
 37 39  1  0     0  0
 34 37  1  0     0  0
M  CHG  2  37   1  39  -1
M  END