
          11280715502D 1   1.00000     0.00000     0

 19 21  0     0  0            999 V2000
    1.2694   -3.7083    0.0000 C   0  0  0  0  0  0           0  0  0
    1.2682   -4.5357    0.0000 C   0  0  0  0  0  0           0  0  0
    1.9831   -4.9485    0.0000 C   0  0  0  0  0  0           0  0  0
    1.9813   -3.2955    0.0000 C   0  0  0  0  0  0           0  0  0
    2.6966   -3.7047    0.0000 C   0  0  0  0  0  0           0  0  0
    2.6974   -4.5315    0.0000 C   0  0  0  0  0  0           0  0  0
    3.4127   -4.9425    0.0000 N   0  0  0  0  0  0           0  0  0
    4.1277   -4.5277    0.0000 C   0  0  0  0  0  0           0  0  0
    4.1230   -3.6977    0.0000 C   0  0  0  0  0  0           0  0  0
    3.4071   -3.2905    0.0000 C   0  0  0  0  0  0           0  0  0
    4.8438   -4.9374    0.0000 N   0  0  0  0  0  0           0  0  0
    5.5567   -4.5222    0.0000 C   0  0  0  0  0  0           0  0  0
    5.5535   -3.6972    0.0000 C   0  0  0  0  0  0           0  0  0
    6.2672   -3.2838    0.0000 C   0  0  0  0  0  0           0  0  0
    6.2643   -2.4596    0.0000 C   0  0  0  0  0  0           0  0  0
    5.5477   -2.0490    0.0000 C   0  0  0  0  0  0           0  0  0
    4.8325   -2.4688    0.0000 C   0  0  0  0  0  0           0  0  0
    4.8389   -3.2916    0.0000 C   0  0  0  0  0  0           0  0  0
    6.9774   -2.0447    0.0000 O   0  0  0  0  0  0           0  0  0
  4  1  2  0     0  0
  9 10  1  0     0  0
 10  5  2  0     0  0
  8 11  1  0     0  0
  2  3  2  0     0  0
 11 12  1  0     0  0
  5  6  1  0     0  0
 12 13  1  0     0  0
  3  6  1  0     0  0
 13 14  2  0     0  0
  6  7  2  0     0  0
 14 15  1  0     0  0
  1  2  1  0     0  0
 15 16  2  0     0  0
  7  8  1  0     0  0
 16 17  1  0     0  0
  5  4  1  0     0  0
 17 18  2  0     0  0
 18 13  1  0     0  0
  8  9  2  0     0  0
 15 19  1  0     0  0
M  END