
  CDK    9/16/09,9:19

 41 44  0  0  0  0  0  0  0  0999 V2000
   13.7758   -1.2565    0.0000 C   0  0  0  0  0  0  0  0  0  0  0  0
   13.0633   -1.6689    0.0000 C   0  0  0  0  0  0  0  0  0  0  0  0
   13.0659   -2.4908    0.0000 C   0  0  0  0  0  0  0  0  0  0  0  0
   14.4963   -1.6583    0.0000 C   0  0  0  0  0  0  0  0  0  0  0  0
   15.2003   -2.9030    0.0000 C   0  0  0  0  0  0  0  0  0  0  0  0
   15.9180   -2.4934    0.0000 C   0  0  0  0  0  0  0  0  0  0  0  0
   15.9239   -1.6715    0.0000 C   0  0  0  0  0  0  0  0  0  0  0  0
   15.2100   -1.2488    0.0000 C   0  0  0  0  0  0  0  0  0  0  0  0
   14.4925   -2.4865    0.0000 C   0  0  0  0  0  0  0  0  0  0  0  0
   13.7754   -2.9104    0.0000 C   0  0  0  0  0  0  0  0  0  0  0  0
   13.9549   -3.7186    0.0000 C   0  0  0  0  0  0  0  0  0  0  0  0
   14.7852   -3.7965    0.0000 O   0  0  0  0  0  0  0  0  0  0  0  0
   14.8901   -3.1589    0.0000 C   0  0  0  0  0  0  0  0  0  0  0  0
   14.7894   -0.5248    0.0000 C   0  0  0  0  0  0  0  0  0  0  0  0
   15.1982    0.1891    0.0000 C   0  0  0  0  0  0  0  0  0  0  0  0
   15.9199   -0.8263    0.0000 C   0  0  0  0  0  0  0  0  0  0  0  0
   14.7834    0.9044    0.0000 C   0  0  0  0  0  0  0  0  0  0  0  0
   15.1964    1.6247    0.0000 C   0  0  0  0  0  0  0  0  0  0  0  0
   13.9576    0.9036    0.0000 C   0  0  0  0  0  0  0  0  0  0  0  0
   14.7753    2.3359    0.0000 C   0  0  0  0  0  0  0  0  0  0  0  0
   16.6402   -1.2606    0.0000 C   0  0  0  0  0  0  0  0  0  0  0  0
   15.5982   -3.5701    0.0000 O   0  0  0  0  0  0  0  0  0  0  0  0
   15.5992   -4.4001    0.0000 C   0  0  0  0  0  0  0  0  0  0  0  0
   16.3143   -4.8136    0.0000 C   0  0  0  0  0  0  0  0  0  0  0  0
   14.8830   -4.8081    0.0000 O   0  0  0  0  0  0  0  0  0  0  0  0
   13.4142   -4.3406    0.0000 O   0  0  0  0  0  0  0  0  0  0  0  0
   12.6006   -4.1780    0.0000 C   0  0  0  0  0  0  0  0  0  0  0  0
   12.0536   -4.7958    0.0000 C   0  0  0  0  0  0  0  0  0  0  0  0
   12.3359   -3.3912    0.0000 O   0  0  0  0  0  0  0  0  0  0  0  0
   14.4963   -0.8324    0.0000 H   0  0  0  0  0  0  0  0  0  0  0  0
   15.1940   -2.0781    0.0000 O   0  0  0  0  0  0  0  0  0  0  0  0
   12.3512   -1.2597    0.0000 O   0  0  0  0  0  0  0  0  0  0  0  0
   12.3495   -0.4384    0.0000 C   0  0  0  0  0  0  0  0  0  0  0  0
   11.6373   -0.0293    0.0000 C   0  0  0  0  0  0  0  0  0  0  0  0
   13.0599   -0.0263    0.0000 O   0  0  0  0  0  0  0  0  0  0  0  0
   11.6407    0.7928    0.0000 C   0  0  0  0  0  0  0  0  0  0  0  0
   10.9294    1.2020    0.0000 C   0  0  0  0  0  0  0  0  0  0  0  0
   10.2180    0.7897    0.0000 C   0  0  0  0  0  0  0  0  0  0  0  0
   10.2224   -0.0357    0.0000 C   0  0  0  0  0  0  0  0  0  0  0  0
   10.9343   -0.4411    0.0000 C   0  0  0  0  0  0  0  0  0  0  0  0
    9.5054    1.1980    0.0000 O   0  0  0  0  0  0  0  0  0  0  0  0
  9 10  1  1  0  0  0 
 10 11  1  0  0  0  0 
 11 12  1  0  0  0  0 
 12 13  1  0  0  0  0 
  9 13  1  0  0  0  0 
  8 14  1  6  0  0  0 
 14 15  1  0  0  0  0 
  8 16  1  0  0  0  0 
 15 17  2  0  0  0  0 
 17 18  1  0  0  0  0 
 17 19  1  0  0  0  0 
 18 20  2  0  0  0  0 
  7 21  1  6  0  0  0 
 13 22  1  6  0  0  0 
 22 23  1  0  0  0  0 
 23 24  1  0  0  0  0 
 23 25  2  0  0  0  0 
 11 26  1  6  0  0  0 
 26 27  1  0  0  0  0 
 27 28  1  0  0  0  0 
 27 29  2  0  0  0  0 
  4 30  1  6  0  0  0 
  5 31  1  6  0  0  0 
  1  2  1  0  0  0  0 
  2 32  1  6  0  0  0 
  1  4  1  0  0  0  0 
 32 33  1  0  0  0  0 
  2  3  1  0  0  0  0 
 33 34  1  0  0  0  0 
  3 10  2  0  0  0  0 
 33 35  2  0  0  0  0 
  4  9  1  0  0  0  0 
 34 36  2  0  0  0  0 
  4  8  1  0  0  0  0 
 36 37  1  0  0  0  0 
  9  5  1  0  0  0  0 
 37 38  2  0  0  0  0 
  5  6  1  0  0  0  0 
 38 39  1  0  0  0  0 
  6  7  1  0  0  0  0 
 39 40  2  0  0  0  0 
 40 34  1  0  0  0  0 
  7  8  1  0  0  0  0 
 38 41  1  0  0  0  0 
M  END