
  SciTegic05171617282D

 32 36  0  0  1  0            999 V2000
   -6.0017   10.3329    0.0000 F   0  0
   -4.9605    9.7363    0.0000 C   0  0
   -3.6639   10.4906    0.0000 C   0  0
   -2.3624    9.7449    0.0000 C   0  0
   -2.3575    8.2449    0.0000 C   0  0
   -3.6540    7.4906    0.0000 C   0  0
   -4.9556    8.2363    0.0000 C   0  0
   -6.2514    7.4790    0.0000 C   0  0
   -6.2443    5.9781    0.0000 N   0  0
   -7.5383    5.2194    0.0000 C   0  0
   -7.5281    3.7194    0.0000 C   0  0
   -6.2240    2.9782    0.0000 C   0  0
   -4.9300    3.7369    0.0000 C   0  0  1  0  0  0
   -4.9402    5.2369    0.0000 C   0  0
   -3.6267    2.9927    0.0000 N   0  0
   -3.6187    1.4919    0.0000 C   0  0
   -4.6549    0.8867    0.0000 O   0  0
   -2.3155    0.7475    0.0000 C   0  0
   -2.3155   -0.7475    0.0000 C   0  0
   -1.0028   -1.5132    0.0000 C   0  0
    0.2917   -0.7475    0.0000 C   0  0
    1.7138   -1.2033    0.0000 N   0  0
    2.5889    0.0182    0.0000 N   0  0
    1.7138    1.2033    0.0000 C   0  0
    2.1749    2.6315    0.0000 C   0  0
    1.2517    3.8078    0.0000 C   0  0
    1.8114    5.1995    0.0000 C   0  0
    3.2965    5.4106    0.0000 N   0  0
    4.2218    4.2301    0.0000 C   0  0
    3.6621    2.8384    0.0000 C   0  0
    0.2917    0.7475    0.0000 C   0  0
   -1.0028    1.5132    0.0000 C   0  0
  1  2  1  0
  2  3  2  0
  3  4  1  0
  4  5  2  0
  5  6  1  0
  6  7  2  0
  2  7  1  0
  7  8  1  0
  8  9  1  0
  9 10  1  0
 10 11  1  0
 11 12  1  0
 12 13  1  0
 13 14  1  0
  9 14  1  0
 13 15  1  1
 15 16  1  0
 16 17  2  0
 16 18  1  0
 18 19  2  0
 19 20  1  0
 20 21  2  0
 21 22  1  0
 22 23  1  0
 23 24  2  0
 24 25  1  0
 25 26  2  0
 26 27  1  0
 27 28  2  0
 28 29  1  0
 29 30  2  0
 25 30  1  0
 24 31  1  0
 21 31  1  0
 31 32  2  0
 18 32  1  0
M  END