
          11280714462D 1   1.00000     0.00000     0

 35 39  0     0  0            999 V2000
   12.1042   -1.0917    0.0000 C   0  0  0  0  0  0           0  0  0
   13.5375   -1.9125    0.0000 N   0  0  0  0  0  0           0  0  0
   12.1167   -1.9125    0.0000 C   0  0  0  0  0  0           0  0  0
   12.8167   -0.6750    0.0000 C   0  0  0  0  0  0           0  0  0
   12.8292   -2.3250    0.0000 C   0  0  0  0  0  0           0  0  0
   13.5292   -1.0792    0.0000 C   0  0  0  0  0  0           0  0  0
    2.8250   -2.3500    0.0000 N   0  0  3  0  0  0           0  0  0
   11.3917   -0.6792    0.0000 N   0  0  0  0  0  0           0  0  0
    6.3917   -1.9292    0.0000 C   0  0  0  0  0  0           0  0  0
    7.8250   -1.1042    0.0000 C   0  0  0  0  0  0           0  0  0
   11.4042   -2.3250    0.0000 C   0  0  0  0  0  0           0  0  0
    7.1125   -2.3417    0.0000 C   0  0  0  0  0  0           0  0  0
    6.3917   -1.1042    0.0000 C   0  0  0  0  0  0           0  0  0
    7.1042   -0.6917    0.0000 C   0  0  0  0  0  0           0  0  0
    7.8250   -1.9292    0.0000 C   0  0  0  0  0  0           0  0  0
    3.5417   -1.9292    0.0000 C   0  0  0  0  0  0           0  0  0
   12.8125    0.1458    0.0000 C   0  0  0  0  0  0           0  0  0
    4.2542   -2.3417    0.0000 C   0  0  0  0  0  0           0  0  0
    5.6792   -2.3417    0.0000 O   0  0  0  0  0  0           0  0  0
   12.8292   -3.1417    0.0000 C   0  0  0  0  0  0           0  0  0
    2.1042   -1.9375    0.0000 C   0  0  0  0  0  0           0  0  0
    2.8250   -3.1792    0.0000 C   0  0  0  0  0  0           0  0  0
   14.2375   -0.6667    0.0000 C   0  0  0  0  0  0           0  0  0
    4.9667   -1.9292    0.0000 C   0  0  0  0  0  0           0  0  0
   10.6792   -1.0917    0.0000 C   0  0  0  0  0  0           0  0  0
    8.5375   -0.6875    0.0000 C   0  0  0  0  0  0           0  0  0
    9.9667   -0.6792    0.0000 C   0  0  0  0  0  0           0  0  0
    9.2500   -1.1000    0.0000 C   0  0  0  0  0  0           0  0  0
   11.4042   -3.1500    0.0000 C   0  0  0  0  0  0           0  0  0
   13.5125    0.5583    0.0000 C   0  0  0  0  0  0           0  0  0
    2.1042   -3.5917    0.0000 C   0  0  0  0  0  0           0  0  0
    1.3917   -2.3500    0.0000 C   0  0  0  0  0  0           0  0  0
   12.1167   -3.5542    0.0000 C   0  0  0  0  0  0           0  0  0
   14.2292    0.1583    0.0000 C   0  0  0  0  0  0           0  0  0
    1.3917   -3.1792    0.0000 C   0  0  0  0  0  0           0  0  0
  2  6  1  0     0  0
  3  1  2  0     0  0
  4  1  1  0     0  0
  5  3  1  0     0  0
  6  4  1  0     0  0
  7 16  1  0     0  0
  8  1  1  0     0  0
  9 12  2  0     0  0
 10 26  1  0     0  0
 11  3  1  0     0  0
 12 15  1  0     0  0
 13 14  2  0     0  0
 14 10  1  0     0  0
 15 10  2  0     0  0
 16 18  1  0     0  0
 17  4  2  0     0  0
 18 24  1  0     0  0
 19  9  1  0     0  0
 20  5  1  0     0  0
 21  7  1  0     0  0
 22  7  1  0     0  0
 23  6  2  0     0  0
 24 19  1  0     0  0
 25  8  1  0     0  0
 26 28  1  0     0  0
 27 25  1  0     0  0
 28 27  1  0     0  0
 29 11  1  0     0  0
 30 17  1  0     0  0
 31 22  1  0     0  0
 32 21  1  0     0  0
 33 29  1  0     0  0
 34 30  2  0     0  0
 35 31  1  0     0  0
  5  2  2  0     0  0
 34 23  1  0     0  0
 33 20  1  0     0  0
  9 13  1  0     0  0
 35 32  1  0     0  0
M  END