
  SciTegic05071317032D

 22 20  0  0  0  0            999 V2000
    0.8735   -1.3706    0.0000 C   0  0
    0.8724   -2.1980    0.0000 C   0  0
    1.5871   -2.6108    0.0000 C   0  0
    2.3035   -2.1975    0.0000 C   0  0
    2.3005   -1.3670    0.0000 C   0  0
    1.5852   -0.9580    0.0000 C   0  0
    3.0134   -0.9519    0.0000 O   0  0
    3.7293   -1.3617    0.0000 C   0  0
    4.4422   -0.9465    0.0000 C   0  0
    5.1581   -1.3563    0.0000 N   0  0
    5.1589   -2.1843    0.0000 C   0  0
    5.8708   -2.5940    0.0000 C   0  0
    6.5861   -2.1823    0.0000 N   0  0
    6.5849   -1.3564    0.0000 C   0  0
    5.8685   -0.9422    0.0000 C   0  0
    7.3005   -2.5948    0.0000 C   0  0
    7.3004   -3.4197    0.0000 C   0  0
    8.0149   -3.8322    0.0000 C   0  0
    8.0148   -4.6571    0.0000 N   0  0
    4.2830   -3.8666    0.0000 Cl  0  0
    3.0054   -4.5964    0.0000 Cl  0  0
    5.4804   -5.5393    0.0000 Cl  0  0
  1  2  2  0
  2  3  1  0
  3  4  2  0
  4  5  1  0
  5  6  2  0
  6  1  1  0
  5  7  1  0
  7  8  1  0
  8  9  1  0
  9 10  1  0
 10 11  1  0
 10 15  1  0
 11 12  1  0
 12 13  1  0
 13 14  1  0
 14 15  1  0
 13 16  1  0
 16 17  1  0
 17 18  1  0
 18 19  1  0
M  END