
  SciTegic03161210572D

 41 44  0  0  0  0            999 V2000
   12.0663  -10.5241    0.0000 F   0  0
   12.4842  -11.2429    0.0000 C   0  0
   12.8979  -10.5216    0.0000 F   0  0
   12.1749  -12.3713    0.0000 F   0  0
   11.7654  -11.6566    0.0000 C   0  0
   11.3512  -12.3687    0.0000 F   0  0
   10.6327  -10.5241    0.0000 F   0  0
   11.0507  -11.2429    0.0000 C   0  0
   11.4643  -10.5216    0.0000 F   0  0
   10.7413  -12.3713    0.0000 F   0  0
   10.3318  -11.6566    0.0000 C   0  0
    9.9176  -12.3687    0.0000 F   0  0
    9.1991  -10.5241    0.0000 F   0  0
    9.6171  -11.2429    0.0000 C   0  0
   10.0306  -10.5216    0.0000 F   0  0
    9.3078  -12.3713    0.0000 F   0  0
    8.8982  -11.6566    0.0000 C   0  0
    8.4841  -12.3687    0.0000 F   0  0
    7.4688  -11.6609    0.0000 N   0  0
    8.1855  -11.2471    0.0000 C   0  0
    8.1855  -10.4195    0.0000 O   0  0
   13.2022  -11.6609    0.0000 C   0  0
   13.9189  -11.2471    0.0000 N   0  0
   13.2022  -12.4884    0.0000 O   0  0
   14.6355  -11.6609    0.0000 O   0  0
    6.7522  -11.2471    0.0000 C   0  0
    5.3263  -11.2504    0.0000 C   0  0
    6.0427  -11.6604    0.0000 C   0  0
    6.7558  -10.4193    0.0000 C   0  0
    7.4699  -10.0079    0.0000 C   0  0
    7.4707   -9.1821    0.0000 C   0  0
    5.3236  -10.4186    0.0000 C   0  0
    6.0393  -10.0083    0.0000 C   0  0
    4.6146   -9.1819    0.0000 C   0  0
    4.6104  -10.0085    0.0000 C   0  0
    5.3303   -8.7716    0.0000 C   0  0
    6.0393   -9.1894    0.0000 C   0  0
    6.7517   -8.7865    0.0000 C   0  0
    6.7612   -7.9642    0.0000 C   0  0
    6.0522   -7.5464    0.0000 C   0  0
    5.3336   -7.9510    0.0000 C   0  0
  5  2  1  0
 14 13  1  0
  2 22  1  0
 15 14  1  0
 22 23  1  0
  9  8  1  0
 22 24  2  0
  5  4  1  0
 23 25  1  0
  6  5  1  0
 19 26  1  0
 26 29  2  0
 17 16  1  0
 32 27  1  0
 18 17  1  0
 27 28  2  0
 28 26  1  0
 33 29  1  0
 11 10  1  0
 29 30  1  0
 12 11  1  0
 30 31  2  0
 31 38  1  0
 32 33  2  0
  2  1  1  0
  3  2  1  0
 19 20  1  0
 20 17  1  0
 32 35  1  0
 33 37  1  0
 36 34  1  0
 34 35  2  0
 36 37  2  0
  8  7  1  0
 20 21  2  0
 17 14  1  0
 14 11  1  0
 11  8  1  0
  8  5  1  0
 36 41  1  0
 37 38  1  0
 38 39  2  0
 39 40  1  0
 40 41  2  0
M  END