
          11280715432D 1   1.00000     0.00000     0

 18 19  0     1  0            999 V2000
    0.1125   -1.1167    0.0000 C   0  0  0  0  0  0           0  0  0
    0.9250   -1.1542    0.0000 N   0  0  0  0  0  0           0  0  0
    0.5792    0.1333    0.0000 C   0  0  0  0  0  0           0  0  0
   -0.4000   -1.7667    0.0000 N   0  0  0  0  0  0           0  0  0
   -0.1083   -0.3167    0.0000 S   0  0  0  0  0  0           0  0  0
    1.2167   -0.3792    0.0000 C   0  0  0  0  0  0           0  0  0
   -1.2208   -1.6542    0.0000 C   0  0  0  0  0  0           0  0  0
    0.5792    0.9583    0.0000 C   0  0  0  0  0  0           0  0  0
   -1.7208   -2.3167    0.0000 O   0  0  0  0  0  0           0  0  0
   -1.5333   -0.9042    0.0000 C   0  0  1  0  0  0           0  0  0
   -2.3458   -0.7917    0.0000 N   0  0  0  0  0  0           0  0  0
    2.0167   -0.1542    0.0000 C   0  0  0  0  0  0           0  0  0
    1.2917    1.3708    0.0000 C   0  0  0  0  0  0           0  0  0
   -0.1375    1.3708    0.0000 C   0  0  0  0  0  0           0  0  0
   -1.0208   -0.2417    0.0000 C   0  0  0  0  0  0           0  0  0
    1.2917    2.2083    0.0000 C   0  0  0  0  0  0           0  0  0
   -0.1375    2.2083    0.0000 C   0  0  0  0  0  0           0  0  0
    0.5792    2.6208    0.0000 C   0  0  0  0  0  0           0  0  0
  2  1  2  0     0  0
  3  5  1  0     0  0
  4  1  1  0     0  0
  5  1  1  0     0  0
  6  2  1  0     0  0
  7  4  1  0     0  0
  8  3  1  0     0  0
  9  7  2  0     0  0
 10  7  1  0     0  0
 11 10  1  0     0  0
 12  6  1  0     0  0
 13  8  2  0     0  0
 14  8  1  0     0  0
 10 15  1  1     0  0
 16 13  1  0     0  0
 17 14  2  0     0  0
 18 17  1  0     0  0
  6  3  2  0     0  0
 18 16  2  0     0  0
M  END