
  SciTegic12131016252D

 23 26  0  0  0  0            999 V2000
    3.5157  -15.5730    0.0000 N   0  0
    3.5146  -16.4005    0.0000 C   0  0
    4.2295  -16.8134    0.0000 N   0  0
    4.2277  -15.1602    0.0000 C   0  0
    4.9432  -15.5694    0.0000 C   0  0
    4.9434  -16.4005    0.0000 C   0  0
    5.7340  -16.6572    0.0000 N   0  0
    6.2224  -15.9846    0.0000 N   0  0
    5.7336  -15.3124    0.0000 C   0  0
    6.1467  -17.3709    0.0000 C   0  0
    5.7341  -18.0855    0.0000 C   0  0
    6.9718  -17.3708    0.0000 C   0  0
    4.2252  -14.3351    0.0000 N   0  0
    5.9839  -14.5285    0.0000 C   0  0
    6.7685  -14.2732    0.0000 N   0  0
    5.4987  -13.8611    0.0000 C   0  0
    5.9833  -13.1934    0.0000 C   0  0
    6.7652  -13.4504    0.0000 C   0  0
    7.3766  -12.9023    0.0000 C   0  0
    7.2074  -12.0971    0.0000 C   0  0
    6.4213  -11.8430    0.0000 C   0  0
    5.8132  -12.3928    0.0000 C   0  0
    6.2484  -11.0362    0.0000 O   0  0
 10 11  1  0
 10 12  1  0
  2  3  1  0
  4 13  1  0
 14 15  1  0
  3  6  2  0
  1  2  2  0
  5  4  2  0
 15 18  1  0
 17 16  1  0
 16 14  2  0
  9 14  1  0
  6  7  1  0
  7  8  1  0
 17 18  2  0
  8  9  2  0
 18 19  1  0
  9  5  1  0
 19 20  2  0
  4  1  1  0
 20 21  1  0
  7 10  1  0
 21 22  2  0
 22 17  1  0
  5  6  1  0
 21 23  1  0
M  END