
  Mrv0541 04051115152D          

 13 14  0  0  0  0            999 V2000
   -1.4652   -0.2857    0.0000 C   0  0  0  0  0  0  0  0  0  0  0  0
   -2.1796   -0.6982    0.0000 N   0  0  0  0  0  0  0  0  0  0  0  0
   -1.4652    0.5393    0.0000 C   0  0  0  0  0  0  0  0  0  0  0  0
   -0.7507    0.9518    0.0000 C   0  0  0  0  0  0  0  0  0  0  0  0
   -0.0362    0.5393    0.0000 C   0  0  0  0  0  0  0  0  0  0  0  0
    0.6783    0.9518    0.0000 N   0  0  0  0  0  0  0  0  0  0  0  0
    1.3927    0.5393    0.0000 C   0  0  0  0  0  0  0  0  0  0  0  0
    2.1072    0.9518    0.0000 N   0  0  0  0  0  0  0  0  0  0  0  0
    1.3927   -0.2857    0.0000 N   0  0  0  0  0  0  0  0  0  0  0  0
    0.6783   -0.6982    0.0000 C   0  0  0  0  0  0  0  0  0  0  0  0
   -0.0362   -0.2857    0.0000 C   0  0  0  0  0  0  0  0  0  0  0  0
   -0.7507   -0.6982    0.0000 C   0  0  0  0  0  0  0  0  0  0  0  0
    0.6783   -1.5232    0.0000 N   0  0  0  0  0  0  0  0  0  0  0  0
  1  2  1  0  0  0  0
  3  1  2  0  0  0  0
 12  1  1  0  0  0  0
  3  4  1  0  0  0  0
  4  5  2  0  0  0  0
  5  6  1  0  0  0  0
  5 11  1  0  0  0  0
  7  6  2  0  0  0  0
  7  8  1  0  0  0  0
  7  9  1  0  0  0  0
 10  9  2  0  0  0  0
 11 10  1  0  0  0  0
 10 13  1  0  0  0  0
 11 12  2  0  0  0  0
M  END