
          11280714522D 1   1.00000     0.00000     0

 25 27  0     1  0            999 V2000
    4.4417   -1.7792    0.0000 C   0  0  2  0  0  0           0  0  0
    4.4292   -2.6042    0.0000 C   0  0  0  0  0  0           0  0  0
    5.1625   -1.3667    0.0000 N   0  0  3  0  0  0           0  0  0
    5.5125   -4.4042    0.0000 C   0  0  0  0  0  0           0  0  0
    5.1417   -3.0250    0.0000 C   0  0  2  0  0  0           0  0  0
    5.7292   -3.6042    0.0000 N   0  0  3  0  0  0           0  0  0
    3.7167   -1.3667    0.0000 C   0  0  0  0  0  0           0  0  0
    5.8667   -2.6167    0.0000 C   0  0  0  0  0  0           0  0  0
    6.0917   -4.9875    0.0000 O   0  0  0  0  0  0           0  0  0
    5.8750   -1.7875    0.0000 C   0  0  0  0  0  0           0  0  0
    3.7250   -0.5375    0.0000 C   0  0  0  0  0  0           0  0  0
    5.1625   -0.5375    0.0000 C   0  0  0  0  0  0           0  0  0
    4.7167   -4.6167    0.0000 O   0  0  0  0  0  0           0  0  0
    4.4417   -0.1167    0.0000 C   0  0  0  0  0  0           0  0  0
    5.8792   -5.7792    0.0000 C   0  0  0  0  0  0           0  0  0
    3.0042   -1.7792    0.0000 C   0  0  0  0  0  0           0  0  0
    6.5250   -3.3917    0.0000 C   0  0  0  0  0  0           0  0  0
    3.0042   -0.1250    0.0000 C   0  0  0  0  0  0           0  0  0
    6.4667   -6.3667    0.0000 C   0  0  3  0  0  0           0  0  0
    6.2542   -7.1625    0.0000 C   0  0  0  0  0  0           0  0  0
    7.2625   -6.1542    0.0000 C   0  0  0  0  0  0           0  0  0
    2.2917   -1.3667    0.0000 C   0  0  0  0  0  0           0  0  0
    2.2917   -0.5375    0.0000 C   0  0  0  0  0  0           0  0  0
    4.4292   -3.4292    0.0000 H   0  0  0  0  0  0           0  0  0
    3.7250   -2.1875    0.0000 H   0  0  0  0  0  0           0  0  0
  2  1  1  0     0  0
  3  1  1  0     0  0
  4  6  1  0     0  0
  5  2  1  0     0  0
  6  5  1  0     0  0
  7  1  1  0     0  0
  8 10  1  0     0  0
  9  4  1  0     0  0
 10  3  1  0     0  0
 11  7  1  0     0  0
 12  3  1  0     0  0
 13  4  2  0     0  0
 14 11  1  0     0  0
 15  9  1  0     0  0
 16  7  2  0     0  0
 17  6  1  0     0  0
 18 11  2  0     0  0
 19 15  1  0     0  0
 20 19  1  0     0  0
 21 19  1  0     0  0
 22 16  1  0     0  0
 23 22  2  0     0  0
  5 24  1  6     0  0
  1 25  1  6     0  0
 14 12  1  0     0  0
  8  5  1  0     0  0
 23 18  1  0     0  0
M  END