
          11280714582D 1   1.00000     0.00000     0

 36 39  0     0  0            999 V2000
    3.8292   -6.2542    0.0000 N   0  0  3  0  0  0           0  0  0
    4.5417   -5.8417    0.0000 C   0  0  0  0  0  0           0  0  0
    5.9792   -9.9875    0.0000 C   0  0  0  0  0  0           0  0  0
    3.1167   -5.8417    0.0000 C   0  0  0  0  0  0           0  0  0
    5.2667   -6.2542    0.0000 C   0  0  0  0  0  0           0  0  0
    4.6667  -10.2667    0.0000 N   0  0  0  0  0  0           0  0  0
    5.2250   -9.6500    0.0000 N   0  0  0  0  0  0           0  0  0
    5.0792  -10.9792    0.0000 N   0  0  0  0  0  0           0  0  0
    5.8917  -10.8125    0.0000 N   0  0  0  0  0  0           0  0  0
    6.7000   -9.5667    0.0000 C   0  0  0  0  0  0           0  0  0
    6.7000   -8.7375    0.0000 C   0  0  0  0  0  0           0  0  0
    5.9792   -5.8417    0.0000 C   0  0  0  0  0  0           0  0  0
    4.5417   -5.0167    0.0000 C   0  0  0  0  0  0           0  0  0
    3.8292   -4.5917    0.0000 C   0  0  3  0  0  0           0  0  0
    3.1167   -5.0167    0.0000 C   0  0  0  0  0  0           0  0  0
    3.8292   -7.0792    0.0000 C   0  0  0  0  0  0           0  0  0
    5.9792   -8.3292    0.0000 C   0  0  0  0  0  0           0  0  0
    2.4000   -6.2542    0.0000 O   0  0  0  0  0  0           0  0  0
    5.9875   -5.0167    0.0000 O   0  0  0  0  0  0           0  0  0
    5.9792   -7.4917    0.0000 C   0  0  0  0  0  0           0  0  0
    5.2625   -8.7417    0.0000 C   0  0  0  0  0  0           0  0  0
    4.5500   -7.5000    0.0000 C   0  0  0  0  0  0           0  0  0
    6.7042   -6.2542    0.0000 O   0  0  0  0  0  0           0  0  0
    5.2625   -7.0792    0.0000 C   0  0  0  0  0  0           0  0  0
    4.5417   -8.3292    0.0000 C   0  0  0  0  0  0           0  0  0
    7.4167   -9.9875    0.0000 C   0  0  0  0  0  0           0  0  0
    7.4167   -8.3250    0.0000 C   0  0  0  0  0  0           0  0  0
    3.4042   -3.9042    0.0000 C   0  0  0  0  0  0           0  0  0
    4.2375   -3.8792    0.0000 C   0  0  0  0  0  0           0  0  0
    7.4167   -5.8500    0.0000 C   0  0  0  0  0  0           0  0  0
    3.8000   -3.1750    0.0000 C   0  0  0  0  0  0           0  0  0
    2.5792   -3.9250    0.0000 C   0  0  0  0  0  0           0  0  0
    8.1292   -8.7292    0.0000 C   0  0  0  0  0  0           0  0  0
    8.1292   -9.5667    0.0000 C   0  0  0  0  0  0           0  0  0
    8.1375   -6.2625    0.0000 C   0  0  0  0  0  0           0  0  0
    4.1875   -2.4500    0.0000 C   0  0  0  0  0  0           0  0  0
  2  1  1  0     0  0
  3 10  1  0     0  0
  4  1  1  0     0  0
  5  2  2  0     0  0
  6  7  2  0     0  0
  7  3  1  0     0  0
  8  9  1  0     0  0
  9  3  2  0     0  0
 10 11  2  0     0  0
 11 17  1  0     0  0
 12  5  1  0     0  0
 13  2  1  0     0  0
 14 15  1  0     0  0
 15  4  1  0     0  0
 16  1  1  0     0  0
 17 21  2  0     0  0
 18  4  2  0     0  0
 19 12  2  0     0  0
 20 24  2  0     0  0
 21 25  1  0     0  0
 22 16  1  0     0  0
 23 12  1  0     0  0
 24 22  1  0     0  0
 25 22  2  0     0  0
 26 10  1  0     0  0
 27 11  1  0     0  0
 28 14  1  0     0  0
 29 14  1  0     0  0
 30 23  1  0     0  0
 31 29  1  0     0  0
 32 28  1  0     0  0
 33 27  2  0     0  0
 34 33  1  0     0  0
 35 30  1  0     0  0
 36 31  1  0     0  0
 14 13  1  0     0  0
 20 17  1  0     0  0
 34 26  2  0     0  0
  8  6  1  0     0  0
M  END