
          11280715132D 1   1.00000     0.00000     0

 30 32  0     0  0            999 V2000
    5.3250   -3.2417    0.0000 C   0  0  0  0  0  0           0  0  0
    4.6125   -2.8292    0.0000 C   0  0  0  0  0  0           0  0  0
    0.5667   -3.3500    0.0000 N   0  0  3  0  0  0           0  0  0
    5.3250   -4.0667    0.0000 C   0  0  0  0  0  0           0  0  0
   -0.1500   -2.9375    0.0000 C   0  0  0  0  0  0           0  0  0
    1.9292   -4.2750    0.0000 N   0  0  3  0  0  0           0  0  0
    4.6125   -2.0042    0.0000 N   0  0  3  0  0  0           0  0  0
    6.0375   -4.4792    0.0000 N   0  0  0  0  0  0           0  0  0
    3.8917   -3.2417    0.0000 O   0  0  0  0  0  0           0  0  0
    0.5042   -4.1667    0.0000 C   0  0  0  0  0  0           0  0  0
    1.3042   -2.9792    0.0000 C   0  0  0  0  0  0           0  0  0
   -0.1500   -2.1042    0.0000 C   0  0  0  0  0  0           0  0  0
    4.6125   -4.4875    0.0000 N   0  0  0  0  0  0           0  0  0
    1.9875   -3.4500    0.0000 C   0  0  0  0  0  0           0  0  0
    1.1875   -4.6292    0.0000 C   0  0  0  0  0  0           0  0  0
    6.0375   -2.8292    0.0000 C   0  0  0  0  0  0           0  0  0
    2.6042   -4.7375    0.0000 C   0  0  0  0  0  0           0  0  0
    3.3167   -4.3167    0.0000 C   0  0  0  0  0  0           0  0  0
   -0.8708   -3.3500    0.0000 C   0  0  0  0  0  0           0  0  0
    6.7542   -4.0667    0.0000 C   0  0  0  0  0  0           0  0  0
    3.9000   -4.9042    0.0000 C   0  0  0  0  0  0           0  0  0
    5.3250   -1.5917    0.0000 C   0  0  0  0  0  0           0  0  0
    3.8917   -1.5917    0.0000 C   0  0  0  0  0  0           0  0  0
    0.5625   -1.6917    0.0000 C   0  0  0  0  0  0           0  0  0
   -0.8708   -1.6917    0.0000 C   0  0  0  0  0  0           0  0  0
    6.7542   -3.2417    0.0000 C   0  0  0  0  0  0           0  0  0
    1.2792   -2.1000    0.0000 C   0  0  0  0  0  0           0  0  0
   -1.5833   -2.9375    0.0000 C   0  0  0  0  0  0           0  0  0
    1.9917   -1.6875    0.0000 C   0  0  0  0  0  0           0  0  0
   -1.5833   -2.1125    0.0000 C   0  0  0  0  0  0           0  0  0
  2  1  1  0     0  0
  3 10  1  0     0  0
  4  1  2  0     0  0
  5  3  1  0     0  0
  6 17  1  0     0  0
  7  2  1  0     0  0
  8  4  1  0     0  0
  9  2  2  0     0  0
 10 15  1  0     0  0
 11 14  1  0     0  0
 12  5  1  0     0  0
 13  4  1  0     0  0
 14  6  1  0     0  0
 15  6  1  0     0  0
 16  1  1  0     0  0
 17 18  1  0     0  0
 18 21  1  0     0  0
 19  5  2  0     0  0
 20 26  1  0     0  0
 21 13  1  0     0  0
 22  7  1  0     0  0
 23  7  1  0     0  0
 24 12  1  0     0  0
 25 12  2  0     0  0
 26 16  2  0     0  0
 27 24  1  0     0  0
 28 19  1  0     0  0
 29 27  1  0     0  0
 30 28  2  0     0  0
 20  8  2  0     0  0
  3 11  1  0     0  0
 30 25  1  0     0  0
M  END