
          11280714502D 1   1.00000     0.00000     0

 28 32  0     1  0            999 V2000
    1.7250   -0.1917    0.0000 N   0  0  3  0  0  0           0  0  0
    1.2042   -0.4917    0.0000 C   0  0  2  0  0  0           0  0  0
    0.6875   -0.1917    0.0000 C   0  0  0  0  0  0           0  0  0
    1.7167   -1.3875    0.0000 C   0  0  2  0  0  0           0  0  0
    1.2000   -1.0875    0.0000 C   0  0  0  0  0  0           0  0  0
    1.7125   -1.9792    0.0000 C   0  0  1  0  0  0           0  0  0
    0.6917    0.4083    0.0000 C   0  0  0  0  0  0           0  0  0
    0.1750   -0.4917    0.0000 C   0  0  0  0  0  0           0  0  0
    2.2417   -1.0917    0.0000 C   0  0  1  0  0  0           0  0  0
    2.2417   -0.4917    0.0000 C   0  0  0  0  0  0           0  0  0
   -0.3458   -0.1917    0.0000 C   0  0  0  0  0  0           0  0  0
   -0.3458    0.4083    0.0000 C   0  0  0  0  0  0           0  0  0
    0.1750    0.7083    0.0000 C   0  0  0  0  0  0           0  0  0
   -0.8625   -0.4917    0.0000 O   0  0  0  0  0  0           0  0  0
    1.7250    0.4083    0.0000 C   0  0  0  0  0  0           0  0  0
   -0.8625    0.7083    0.0000 O   0  0  0  0  0  0           0  0  0
    2.2250   -2.2875    0.0000 C   0  0  1  0  0  0           0  0  0
   -1.5875    0.0958    0.0000 C   0  0  0  0  0  0           0  0  0
    1.2042    0.7083    0.0000 C   0  0  0  0  0  0           0  0  0
    2.7542   -1.3917    0.0000 C   0  0  0  0  0  0           0  0  0
    2.7417   -1.9917    0.0000 C   0  0  0  0  0  0           0  0  0
    1.1875   -2.2792    0.0000 C   0  0  0  0  0  0           0  0  0
    2.5167   -2.8042    0.0000 O   0  0  0  0  0  0           0  0  0
    0.6750   -1.9667    0.0000 O   0  0  0  0  0  0           0  0  0
    2.7542   -0.7917    0.0000 H   0  0  0  0  0  0           0  0  0
    1.2000   -1.6792    0.0000 H   0  0  0  0  0  0           0  0  0
    0.6792   -0.7875    0.0000 H   0  0  0  0  0  0           0  0  0
    1.9167   -2.8042    0.0000 H   0  0  0  0  0  0           0  0  0
  2  1  1  0     0  0
  3  2  1  0     0  0
  4  9  1  0     0  0
  5  2  1  0     0  0
  6  4  1  0     0  0
  7 19  1  0     0  0
  8  3  1  0     0  0
  9 10  1  0     0  0
 10  1  1  0     0  0
 11  8  2  0     0  0
 12 13  2  0     0  0
 13  7  1  0     0  0
 14 11  1  0     0  0
 15  1  1  0     0  0
 16 12  1  0     0  0
 17 21  1  0     0  0
 18 14  1  0     0  0
 19 15  1  0     0  0
 20  9  1  0     0  0
 21 20  1  0     0  0
  6 22  1  1     0  0
 17 23  1  1     0  0
 24 22  1  0     0  0
  9 25  1  6     0  0
  4 26  1  6     0  0
  2 27  1  6     0  0
 17 28  1  6     0  0
  4  5  1  0     0  0
  7  3  2  0     0  0
 11 12  1  0     0  0
 17  6  1  0     0  0
 16 18  1  0     0  0
M  END