
          11280715112D 1   1.00000     0.00000     0

 24 26  0     0  0            999 V2000
   -1.4333   -0.7042    0.0000 N   0  0  0  0  0  0           0  0  0
   -1.7250   -0.1875    0.0000 C   0  0  0  0  0  0           0  0  0
   -1.3250    0.2583    0.0000 N   0  0  0  0  0  0           0  0  0
   -0.8458   -0.5792    0.0000 C   0  0  0  0  0  0           0  0  0
   -0.7833    0.0083    0.0000 C   0  0  0  0  0  0           0  0  0
   -3.6958   -1.0625    0.0000 N   0  0  0  0  0  0           0  0  0
   -3.8833   -0.4875    0.0000 C   0  0  0  0  0  0           0  0  0
   -4.6708   -1.0542    0.0000 N   0  0  0  0  0  0           0  0  0
   -4.1833   -1.4125    0.0000 C   0  0  0  0  0  0           0  0  0
   -0.4083   -0.9875    0.0000 C   0  0  0  0  0  0           0  0  0
   -4.4833   -0.4792    0.0000 C   0  0  0  0  0  0           0  0  0
   -2.3250   -0.1875    0.0000 S   0  0  0  0  0  0           0  0  0
    0.1125   -0.6917    0.0000 C   0  0  0  0  0  0           0  0  0
   -0.4083   -1.5875    0.0000 C   0  0  0  0  0  0           0  0  0
   -3.3583   -0.1917    0.0000 C   0  0  0  0  0  0           0  0  0
    0.6250   -1.5917    0.0000 C   0  0  0  0  0  0           0  0  0
   -2.8458   -0.4917    0.0000 C   0  0  0  0  0  0           0  0  0
    0.1042   -1.8875    0.0000 C   0  0  0  0  0  0           0  0  0
    0.6292   -0.9917    0.0000 C   0  0  0  0  0  0           0  0  0
    1.1417   -1.8917    0.0000 O   0  0  0  0  0  0           0  0  0
    1.6625   -1.5917    0.0000 C   0  0  0  0  0  0           0  0  0
    2.1792   -1.9000    0.0000 C   0  0  0  0  0  0           0  0  0
    2.7000   -1.6000    0.0000 C   0  0  0  0  0  0           0  0  0
    3.2167   -1.9042    0.0000 C   0  0  0  0  0  0           0  0  0
  2  1  2  0     0  0
  3  2  1  0     0  0
  4  1  1  0     0  0
  5  4  2  0     0  0
  6  7  1  0     0  0
  7 15  1  0     0  0
  8 11  1  0     0  0
  9  6  2  0     0  0
 10  4  1  0     0  0
 11  7  2  0     0  0
 12  2  1  0     0  0
 13 10  2  0     0  0
 14 10  1  0     0  0
 15 17  1  0     0  0
 16 18  1  0     0  0
 17 12  1  0     0  0
 18 14  2  0     0  0
 19 13  1  0     0  0
 20 16  1  0     0  0
 21 20  1  0     0  0
 22 21  1  0     0  0
 23 22  1  0     0  0
 24 23  1  0     0  0
  3  5  1  0     0  0
 16 19  2  0     0  0
  9  8  1  0     0  0
M  END