
          11280714452D 1   1.00000     0.00000     0

 22 23  0     0  0            999 V2000
   -1.6083   -1.4667    0.0000 N   0  0  0  0  0  0           0  0  0
   -0.8208   -1.2125    0.0000 C   0  0  0  0  0  0           0  0  0
   -0.8250   -0.3875    0.0000 N   0  0  0  0  0  0           0  0  0
   -2.0958   -0.8042    0.0000 C   0  0  0  0  0  0           0  0  0
   -1.6125   -0.1375    0.0000 C   0  0  0  0  0  0           0  0  0
   -0.1000   -1.6167    0.0000 C   0  0  0  0  0  0           0  0  0
    5.5542   -0.0625    0.0000 N   0  0  0  0  0  0           0  0  0
   -2.9208   -0.8125    0.0000 Br  0  0  0  0  0  0           0  0  0
    2.7000   -0.0625    0.0000 O   0  0  0  0  0  0           0  0  0
    4.1292   -0.0625    0.0000 C   0  0  3  0  0  0           0  0  0
    1.9792   -0.4750    0.0000 C   0  0  0  0  0  0           0  0  0
    0.5542   -1.3000    0.0000 C   0  0  0  0  0  0           0  0  0
    4.8417   -0.4750    0.0000 C   0  0  0  0  0  0           0  0  0
    3.4125   -0.4750    0.0000 C   0  0  0  0  0  0           0  0  0
    1.2667   -0.0625    0.0000 C   0  0  0  0  0  0           0  0  0
    1.9792   -1.3042    0.0000 C   0  0  0  0  0  0           0  0  0
    0.5542   -0.4667    0.0000 C   0  0  0  0  0  0           0  0  0
    1.2667   -1.7125    0.0000 C   0  0  0  0  0  0           0  0  0
    4.1292    0.7625    0.0000 O   0  0  0  0  0  0           0  0  0
    6.2667   -0.4750    0.0000 C   0  0  3  0  0  0           0  0  0
    6.9875   -0.0667    0.0000 C   0  0  0  0  0  0           0  0  0
    6.2667   -1.3000    0.0000 C   0  0  0  0  0  0           0  0  0
  2  1  2  0     0  0
  3  2  1  0     0  0
  4  1  1  0     0  0
  5  4  2  0     0  0
  6  2  1  0     0  0
  7 13  1  0     0  0
  8  4  1  0     0  0
  9 11  1  0     0  0
 10 14  1  0     0  0
 11 16  1  0     0  0
 12  6  1  0     0  0
 13 10  1  0     0  0
 14  9  1  0     0  0
 15 17  1  0     0  0
 16 18  2  0     0  0
 17 12  2  0     0  0
 18 12  1  0     0  0
 19 10  1  0     0  0
 20  7  1  0     0  0
 21 20  1  0     0  0
 22 20  1  0     0  0
  3  5  1  0     0  0
 15 11  2  0     0  0
M  END