
          11280715342D 1   1.00000     0.00000     0

 42 47  0     1  0            999 V2000
    6.2125   -3.6917    0.0000 N   0  0  3  0  0  0           0  0  0
    6.2042   -4.5167    0.0000 C   0  0  2  0  0  0           0  0  0
    4.8750   -4.3917    0.0000 C   0  0  0  0  0  0           0  0  0
    6.9250   -3.2792    0.0000 C   0  0  0  0  0  0           0  0  0
    5.7917   -2.9792    0.0000 C   0  0  0  0  0  0           0  0  0
    7.6375   -1.2167    0.0000 C   0  0  3  0  0  0           0  0  0
    8.0542    0.0583    0.0000 C   0  0  0  0  0  0           0  0  0
    7.2250    0.0583    0.0000 C   0  0  0  0  0  0           0  0  0
    8.3042   -0.7292    0.0000 C   0  0  0  0  0  0           0  0  0
    6.9667   -0.7292    0.0000 C   0  0  0  0  0  0           0  0  0
    5.4917   -4.9250    0.0000 C   0  0  0  0  0  0           0  0  0
    4.1750   -3.2542    0.0000 N   0  0  0  0  0  0           0  0  0
    4.9375   -3.5792    0.0000 C   0  0  0  0  0  0           0  0  0
    6.9167   -4.9250    0.0000 C   0  0  0  0  0  0           0  0  0
    4.0750   -4.5792    0.0000 C   0  0  0  0  0  0           0  0  0
    7.6375   -2.0417    0.0000 C   0  0  0  0  0  0           0  0  0
    6.9250   -2.4542    0.0000 O   0  0  0  0  0  0           0  0  0
    3.6542   -3.8542    0.0000 C   0  0  0  0  0  0           0  0  0
    4.9667   -2.9917    0.0000 O   0  0  0  0  0  0           0  0  0
    6.1917   -2.2625    0.0000 O   0  0  0  0  0  0           0  0  0
    7.6417   -3.6917    0.0000 O   0  0  0  0  0  0           0  0  0
    6.9167   -5.7417    0.0000 O   0  0  0  0  0  0           0  0  0
    7.6292   -4.5042    0.0000 O   0  0  0  0  0  0           0  0  0
    4.5417   -2.2792    0.0000 C   0  0  0  0  0  0           0  0  0
    6.6792    0.6708    0.0000 C   0  0  0  0  0  0           0  0  0
    8.6000    0.6625    0.0000 C   0  0  0  0  0  0           0  0  0
    9.1042   -0.9000    0.0000 C   0  0  0  0  0  0           0  0  0
    6.1542   -0.8917    0.0000 C   0  0  0  0  0  0           0  0  0
    3.7167   -2.2875    0.0000 C   0  0  0  0  0  0           0  0  0
    3.6667   -5.3042    0.0000 C   0  0  0  0  0  0           0  0  0
    2.8167   -3.8667    0.0000 C   0  0  0  0  0  0           0  0  0
    3.3042   -1.5792    0.0000 C   0  0  0  0  0  0           0  0  0
    3.3167   -3.0042    0.0000 C   0  0  0  0  0  0           0  0  0
    5.6042   -0.2792    0.0000 C   0  0  0  0  0  0           0  0  0
    9.6542   -0.2917    0.0000 C   0  0  0  0  0  0           0  0  0
    9.4042    0.4958    0.0000 C   0  0  0  0  0  0           0  0  0
    5.8667    0.5083    0.0000 C   0  0  0  0  0  0           0  0  0
    2.8375   -5.3167    0.0000 C   0  0  0  0  0  0           0  0  0
    2.4042   -4.5917    0.0000 C   0  0  0  0  0  0           0  0  0
    2.4875   -3.0167    0.0000 C   0  0  0  0  0  0           0  0  0
    2.4750   -1.5792    0.0000 C   0  0  0  0  0  0           0  0  0
    2.0667   -2.3042    0.0000 C   0  0  0  0  0  0           0  0  0
  2  1  1  0     0  0
  3 11  1  0     0  0
  4  1  1  0     0  0
  5  1  1  0     0  0
  6 16  1  0     0  0
  7  9  2  0     0  0
  8 10  1  0     0  0
  9  6  1  0     0  0
 10  6  1  0     0  0
  2 11  1  1     0  0
 12 13  1  0     0  0
 13  3  2  0     0  0
 14  2  1  0     0  0
 15  3  1  0     0  0
 16 17  1  0     0  0
 17  4  1  0     0  0
 18 15  2  0     0  0
 19  5  1  0     0  0
 20  5  2  0     0  0
 21  4  2  0     0  0
 22 14  2  0     0  0
 23 14  1  0     0  0
 24 19  1  0     0  0
 25  8  2  0     0  0
 26  7  1  0     0  0
 27  9  1  0     0  0
 28 10  2  0     0  0
 29 24  1  0     0  0
 30 15  1  0     0  0
 31 18  1  0     0  0
 32 29  1  0     0  0
 33 29  2  0     0  0
 34 28  1  0     0  0
 35 27  2  0     0  0
 36 35  1  0     0  0
 37 34  2  0     0  0
 38 30  2  0     0  0
 39 38  1  0     0  0
 40 33  1  0     0  0
 41 32  2  0     0  0
 42 40  2  0     0  0
 18 12  1  0     0  0
  7  8  1  0     0  0
 41 42  1  0     0  0
 31 39  2  0     0  0
 25 37  1  0     0  0
 36 26  2  0     0  0
M  END