
          11280715222D 1   1.00000     0.00000     0

 25 26  0     1  0            999 V2000
    0.2042    0.3333    0.0000 N   0  0  3  0  0  0           0  0  0
   -0.6125    0.2708    0.0000 C   0  0  0  0  0  0           0  0  0
    1.4542   -0.3667    0.0000 C   0  0  2  0  0  0           0  0  0
    0.6292   -0.3667    0.0000 C   0  0  0  0  0  0           0  0  0
    0.6250    1.0500    0.0000 C   0  0  0  0  0  0           0  0  0
    2.0375   -0.9500    0.0000 C   0  0  0  0  0  0           0  0  0
    1.4417    1.0583    0.0000 C   0  0  1  0  0  0           0  0  0
    5.5792    2.1875    0.0000 C   0  0  0  0  0  0           0  0  0
   -0.9750   -0.4750    0.0000 O   0  0  0  0  0  0           0  0  0
    1.8292   -1.7417    0.0000 C   0  0  0  0  0  0           0  0  0
    5.3250    3.0833    0.0000 O   0  0  0  0  0  0           0  0  0
   -1.0833    0.9500    0.0000 C   0  0  3  0  0  0           0  0  0
    2.7417    1.0083    0.0000 C   0  0  0  0  0  0           0  0  0
    3.6792    1.0083    0.0000 C   0  0  0  0  0  0           0  0  0
    6.4792    1.9625    0.0000 O   0  0  0  0  0  0           0  0  0
    2.1500    1.4583    0.0000 C   0  0  0  0  0  0           0  0  0
    1.0292   -1.9625    0.0000 O   0  0  0  0  0  0           0  0  0
    2.8292   -0.7292    0.0000 C   0  0  0  0  0  0           0  0  0
    4.9292    1.5208    0.0000 C   0  0  0  0  0  0           0  0  0
    4.1250    1.5125    0.0000 C   0  0  0  0  0  0           0  0  0
    2.4167   -2.3292    0.0000 C   0  0  0  0  0  0           0  0  0
   -1.9083    0.8875    0.0000 C   0  0  0  0  0  0           0  0  0
   -0.7250    1.6958    0.0000 C   0  0  0  0  0  0           0  0  0
    3.4167   -1.3042    0.0000 C   0  0  0  0  0  0           0  0  0
    3.2042   -2.1042    0.0000 C   0  0  0  0  0  0           0  0  0
  2  1  1  0     0  0
  3  4  1  0     0  0
  4  1  1  0     0  0
  5  1  1  0     0  0
  3  6  1  1     0  0
  7  5  1  0     0  0
  8 19  1  0     0  0
  9  2  2  0     0  0
 10  6  2  0     0  0
 11  8  2  0     0  0
 12  2  1  0     0  0
 13 16  1  0     0  0
 14 13  2  0     0  0
 15  8  1  0     0  0
  7 16  1  1     0  0
 17 10  1  0     0  0
 18  6  1  0     0  0
 19 20  1  0     0  0
 20 14  1  0     0  0
 21 10  1  0     0  0
 22 12  1  0     0  0
 23 12  1  0     0  0
 24 18  2  0     0  0
 25 24  1  0     0  0
  3  7  1  0     0  0
 21 25  2  0     0  0
M  END