
          05270816392D 1   1.00000     0.00000     0

 37 42  0     1  0            999 V2000
    8.9176  -22.2337    0.0000 C   0  0  0  0  0  0           0  0  0
    8.9163  -23.0568    0.0000 C   0  0  0  0  0  0           0  0  0
   10.3409  -22.2297    0.0000 C   0  0  0  0  0  0           0  0  0
    9.6319  -21.8209    0.0000 C   0  0  0  0  0  0           0  0  0
   10.3441  -23.0562    0.0000 C   0  0  0  0  0  0           0  0  0
    9.6326  -23.4707    0.0000 C   0  0  0  0  0  0           0  0  0
    9.6313  -24.2928    0.0000 C   0  0  0  0  0  0           0  0  0
   10.3443  -24.7068    0.0000 C   0  0  0  0  0  0           0  0  0
    8.3004  -23.6087    0.0000 N   0  0  0  0  0  0           0  0  0
    8.8469  -24.5474    0.0000 C   0  0  0  0  0  0           0  0  0
   11.0587  -23.4684    0.0000 C   0  0  2  0  0  0           0  0  0
   11.0596  -24.2962    0.0000 C   0  0  2  0  0  0           0  0  0
   11.7730  -24.7071    0.0000 N   0  0  3  0  0  0           0  0  0
   12.4901  -24.2947    0.0000 C   0  0  0  0  0  0           0  0  0
   12.4892  -23.4670    0.0000 C   0  0  1  0  0  0           0  0  0
   11.7712  -23.0515    0.0000 C   0  0  0  0  0  0           0  0  0
   11.0504  -25.1166    0.0000 H   0  0  0  0  0  0           0  0  0
   11.0504  -22.6416    0.0000 H   0  0  0  0  0  0           0  0  0
   13.2036  -23.0543    0.0000 C   0  0  0  0  0  0           0  0  0
   13.2036  -22.2293    0.0000 O   0  0  0  0  0  0           0  0  0
   13.9182  -23.4668    0.0000 N   0  0  3  0  0  0           0  0  0
   13.9130  -24.2971    0.0000 C   0  0  0  0  0  0           0  0  0
   14.6234  -24.7095    0.0000 C   0  0  0  0  0  0           0  0  0
   15.3403  -24.3005    0.0000 N   0  0  3  0  0  0           0  0  0
   15.3422  -23.4747    0.0000 C   0  0  0  0  0  0           0  0  0
   14.6274  -23.0576    0.0000 C   0  0  0  0  0  0           0  0  0
   16.0532  -24.7158    0.0000 C   0  0  0  0  0  0           0  0  0
   16.0451  -25.5396    0.0000 C   0  0  0  0  0  0           0  0  0
   16.7573  -25.9547    0.0000 C   0  0  0  0  0  0           0  0  0
   17.4743  -25.5449    0.0000 C   0  0  0  0  0  0           0  0  0
   17.4747  -24.7156    0.0000 C   0  0  0  0  0  0           0  0  0
   16.7620  -24.3042    0.0000 N   0  0  0  0  0  0           0  0  0
    8.5524  -25.3180    0.0000 Br  0  0  0  0  0  0           0  0  0
   11.7726  -25.5321    0.0000 C   0  0  0  0  0  0           0  0  0
   11.0581  -25.9444    0.0000 C   0  0  0  0  0  0           0  0  0
   11.0577  -26.7694    0.0000 C   0  0  0  0  0  0           0  0  0
   10.3432  -27.1817    0.0000 C   0  0  0  0  0  0           0  0  0
 12 17  1  1     0  0
  7  8  1  0     0  0
 11 18  1  6     0  0
  8 12  1  0     0  0
 15 19  1  1     0  0
  3  4  2  0     0  0
 19 20  2  0     0  0
  2  9  1  0     0  0
 19 21  1  0     0  0
 21 22  1  0     0  0
  4  1  1  0     0  0
  7 10  2  0     0  0
  9 10  1  0     0  0
 11 12  1  0     0  0
  5  6  2  0     0  0
 21 26  1  0     0  0
 22 23  1  0     0  0
 23 24  1  0     0  0
 24 25  1  0     0  0
 25 26  1  0     0  0
  2  6  1  0     0  0
 24 27  1  0     0  0
 27 28  2  0     0  0
  5  3  1  0     0  0
 28 29  1  0     0  0
  1  2  2  0     0  0
 29 30  2  0     0  0
  5 11  1  0     0  0
 30 31  1  0     0  0
 11 16  1  0     0  0
 31 32  2  0     0  0
 32 27  1  0     0  0
 12 13  1  0     0  0
 10 33  1  0     0  0
 13 14  1  0     0  0
 13 34  1  0     0  0
 14 15  1  0     0  0
 34 35  1  0     0  0
 15 16  1  0     0  0
 35 36  1  0     0  0
  6  7  1  0     0  0
 36 37  1  0     0  0
M  END