
  CDK    9/16/09,9:57

 21 24  0  0  0  0  0  0  0  0999 V2000
    0.7105  -24.5220    0.0000 C   0  0  0  0  0  0  0  0  0  0  0  0
    0.7093  -25.3487    0.0000 C   0  0  0  0  0  0  0  0  0  0  0  0
    1.4236  -25.7613    0.0000 C   0  0  0  0  0  0  0  0  0  0  0  0
    1.4218  -24.1096    0.0000 C   0  0  0  0  0  0  0  0  0  0  0  0
    2.1366  -24.5184    0.0000 C   0  0  0  0  0  0  0  0  0  0  0  0
    2.1369  -25.3487    0.0000 C   0  0  0  0  0  0  0  0  0  0  0  0
    2.9267  -25.6051    0.0000 N   0  0  0  0  0  0  0  0  0  0  0  0
    2.9263  -24.2616    0.0000 C   0  0  0  0  0  0  0  0  0  0  0  0
    3.4115  -24.9345    0.0000 C   0  0  0  0  0  0  0  0  0  0  0  0
    4.2348  -24.8498    0.0000 C   0  0  0  0  0  0  0  0  0  0  0  0
    4.5740  -24.0930    0.0000 C   0  0  0  0  0  0  0  0  0  0  0  0
    4.0836  -23.4200    0.0000 N   0  0  0  0  0  0  0  0  0  0  0  0
    3.2620  -23.5080    0.0000 C   0  0  0  0  0  0  0  0  0  0  0  0
    2.7770  -22.8415    0.0000 N   0  0  0  0  0  0  0  0  0  0  0  0
    3.1116  -22.0881    0.0000 C   0  0  0  0  0  0  0  0  0  0  0  0
    2.6265  -21.4217    0.0000 C   0  0  0  0  0  0  0  0  0  0  0  0
    2.9663  -20.6711    0.0000 C   0  0  0  0  0  0  0  0  0  0  0  0
    2.4850  -20.0063    0.0000 C   0  0  0  0  0  0  0  0  0  0  0  0
    1.6645  -20.0890    0.0000 C   0  0  0  0  0  0  0  0  0  0  0  0
    1.3275  -20.8424    0.0000 C   0  0  0  0  0  0  0  0  0  0  0  0
    1.8113  -21.5132    0.0000 C   0  0  0  0  0  0  0  0  0  0  0  0
  9 10  1  0  0  0  0 
  5  6  1  0  0  0  0 
 10 11  2  0  0  0  0 
 11 12  1  0  0  0  0 
  2  3  1  0  0  0  0 
 12 13  2  0  0  0  0 
 13  8  1  0  0  0  0 
  3  6  2  0  0  0  0 
 13 14  1  0  0  0  0 
  6  7  1  0  0  0  0 
 14 15  1  0  0  0  0 
  7  9  1  0  0  0  0 
 15 16  1  0  0  0  0 
 16 17  1  0  0  0  0 
  8  5  1  0  0  0  0 
  1  2  2  0  0  0  0 
  5  4  2  0  0  0  0 
  8  9  2  0  0  0  0 
  4  1  1  0  0  0  0 
 16 21  2  0  0  0  0 
 17 18  2  0  0  0  0 
 18 19  1  0  0  0  0 
 19 20  2  0  0  0  0 
 20 21  1  0  0  0  0 
M  END