
  SciTegic04191613082D

181191  0  0  1  0            999 V2000
    2.9054   -6.5979    0.0000 N   0  0
    1.4526   -6.9717    0.0000 C   0  0  1  0  0  0
    1.6822   -8.4667    0.0000 C   0  0
    0.9040   -9.7500    0.0000 C   0  0
    1.6255  -11.0661    0.0000 C   0  0
    0.8473  -12.3494    0.0000 N   0  0
    1.5687  -13.6654    0.0000 C   0  0
    0.9465  -14.6915    0.0000 N   0  0
    2.7684  -13.6916    0.0000 N   0  0
   -0.0456   -7.0453    0.0000 C   0  0
   -0.1082   -8.2437    0.0000 O   0  0
   -1.5279   -6.8159    0.0000 N   0  0
   -2.9337   -6.2928    0.0000 C   0  0  2  0  0  0
   -4.2055   -5.4974    0.0000 C   0  0
   -5.2911   -4.4623    0.0000 N   0  0
   -6.1461   -3.2298    0.0000 C   0  0  2  0  0  0
   -6.7355   -1.8505    0.0000 C   0  0
   -7.0352   -0.3807    0.0000 N   0  0
   -7.0329    1.1193    0.0000 C   0  0  2  0  0  0
   -6.7287    2.5881    0.0000 C   0  0
   -6.1350    3.9657    0.0000 N   0  0
   -5.2762    5.1955    0.0000 C   0  0  2  0  0  0
   -6.6898    5.7337    0.0000 C   0  0
   -7.4650    5.1020    0.0000 O   0  0
   -6.9295    7.2152    0.0000 N   0  0
   -8.3321    7.7493    0.0000 C   0  0  1  0  0  0
   -8.5719    9.2308    0.0000 C   0  0
   -9.9744    9.7649    0.0000 C   0  0
  -10.2142   11.2465    0.0000 C   0  0
  -11.6168   11.7805    0.0000 C   0  0
  -11.8085   12.9651    0.0000 N   0  0
   -9.4976    6.8037    0.0000 C   0  0
  -10.6186    7.2319    0.0000 O   0  0
   -9.3083    5.6187    0.0000 O   0  0
   -4.1875    6.2273    0.0000 C   0  0
   -2.9133    7.0188    0.0000 N   0  0
   -1.5058    7.5375    0.0000 C   0  0
   -1.7550    8.5060    0.0000 O   0  0
   -0.0228    7.7624    0.0000 C   0  0
    1.4752    7.6841    0.0000 C   0  0
    2.9324    7.3249    0.0000 C   0  0
    1.4932    7.7475    0.0000 C   0  0
    0.0000    7.8901    0.0000 C   0  0
   -0.6053    7.9437    0.0000 C   0  0
   -1.4932    7.7475    0.0000 C   0  0
   -2.9325    7.3249    0.0000 N   0  0
   -4.2657    6.6375    0.0000 C   0  0  2  0  0  0
   -5.0811    7.9117    0.0000 C   0  0
   -4.3917    9.2448    0.0000 C   0  0
   -5.1984   10.5095    0.0000 C   0  0
   -4.5066   11.8404    0.0000 C   0  0
   -3.0080   11.9068    0.0000 C   0  0
   -2.2013   10.6422    0.0000 C   0  0
   -2.8931    9.3113    0.0000 C   0  0
   -5.4448    5.7103    0.0000 C   0  0
   -6.1349    6.4340    0.0000 O   0  0
   -6.4271    4.5767    0.0000 N   0  0
   -7.1771    3.2776    0.0000 C   0  0  1  0  0  0
   -8.2532    4.3409    0.0000 C   0  0
   -9.7007    3.9446    0.0000 C   0  0
  -10.7693    4.9973    0.0000 C   0  0
  -12.2153    4.5984    0.0000 C   0  0
  -12.5928    3.1466    0.0000 C   0  0
  -13.7495    2.8274    0.0000 Br  0  0
  -11.5243    2.0939    0.0000 C   0  0
  -10.0783    2.4928    0.0000 C   0  0
   -7.6677    1.8601    0.0000 C   0  0
   -8.8339    2.1430    0.0000 O   0  0
   -7.8812    0.3754    0.0000 N   0  0
   -7.8098   -1.1229    0.0000 C   0  0  1  0  0  0
   -7.4561   -2.5806    0.0000 C   0  0
   -8.5901   -2.9731    0.0000 O   0  0
   -6.8330   -3.9451    0.0000 N   0  0
   -5.9629   -5.1669    0.0000 C   0  0  1  0  0  0
   -4.8773   -6.2020    0.0000 C   0  0
   -3.6154   -7.0130    0.0000 N   0  0
   -2.2229   -7.5705    0.0000 C   0  0  2  0  0  0
   -0.7500   -7.8544    0.0000 C   0  0
   -0.8640   -9.0489    0.0000 O   0  0
    0.7500   -7.8544    0.0000 N   0  0
    2.2229   -7.5705    0.0000 C   0  0  2  0  0  0
    3.6155   -7.0130    0.0000 C   0  0
    4.8773   -6.2020    0.0000 N   0  0
    5.9629   -5.1669    0.0000 C   0  0  1  0  0  0
    6.7187   -5.8218    0.0000 C   0  0
    6.8330   -3.9450    0.0000 C   0  0
    7.8723   -4.5450    0.0000 O   0  0
    7.4561   -2.5806    0.0000 N   0  0
    7.8098   -1.1229    0.0000 C   0  0  1  0  0  0
    7.8812    0.3754    0.0000 C   0  0
    7.6677    1.8602    0.0000 N   0  0
    7.1771    3.2777    0.0000 C   0  0  2  0  0  0
    7.6052    1.8391    0.0000 C   0  0
    8.7826    2.0711    0.0000 O   0  0
    7.7547    0.3466    0.0000 N   0  0
    7.6007   -1.1455    0.0000 C   0  0  2  0  0  0
    7.1494   -2.5760    0.0000 C   0  0
    6.4195   -3.8864    0.0000 N   0  0
    5.4407   -5.0230    0.0000 C   0  0  1  0  0  0
    6.0455   -6.4094    0.0000 C   0  0
    7.5368   -6.5784    0.0000 C   0  0
    8.1379   -7.9500    0.0000 C   0  0
    9.6427   -8.1067    0.0000 C   0  0
   10.5285   -6.8998    0.0000 C   0  0
   12.0166   -7.0639    0.0000 C   0  0
   12.9025   -5.8570    0.0000 C   0  0
   12.3003   -4.4862    0.0000 C   0  0
   10.8122   -4.3222    0.0000 C   0  0
    9.9264   -5.5290    0.0000 C   0  0
    8.4383   -5.3649    0.0000 C   0  0
    4.2531   -5.9394    0.0000 C   0  0
    4.8863   -6.9587    0.0000 O   0  0
    8.2514   -3.0509    0.0000 O   0  0
    8.8891   -1.9378    0.0000 C   0  0
   10.2096   -1.2246    0.0000 C   0  0
   11.4885   -2.0085    0.0000 C   0  0
   12.8069   -1.2929    0.0000 C   0  0
   12.8464    0.2065    0.0000 C   0  0
   11.5675    0.9905    0.0000 C   0  0
   10.2492    0.2750    0.0000 C   0  0
    6.4271    4.5767    0.0000 C   0  0
    5.4448    5.7103    0.0000 N   0  0
    4.2657    6.6376    0.0000 C   0  0
    4.9145    7.6471    0.0000 O   0  0
    9.0798    0.4325    0.0000 O   0  0
    8.7996   -1.2652    0.0000 C   0  0
    4.1653   -8.0796    0.0000 O   0  0
    2.6463   -9.0228    0.0000 C   0  0
    4.1039   -9.3803    0.0000 C   0  0
    4.5240  -10.8211    0.0000 C   0  0
    5.9816  -11.1787    0.0000 N   0  0
    6.4017  -12.6195    0.0000 C   0  0
    7.5671  -12.9054    0.0000 N   0  0
    5.5717  -13.4862    0.0000 N   0  0
   -2.6519   -9.0211    0.0000 C   0  0
   -4.1108   -9.3731    0.0000 C   0  0
   -4.5482  -10.8200    0.0000 C   0  0
   -6.0039  -11.1696    0.0000 C   0  0
   -6.4288  -12.6051    0.0000 C   0  0
   -7.8845  -12.9546    0.0000 C   0  0
   -8.9153  -11.8687    0.0000 C   0  0
   -8.4904  -10.4332    0.0000 C   0  0
   -7.0347  -10.0836    0.0000 C   0  0
   -6.6098   -8.6481    0.0000 C   0  0
   -5.1409   -8.2860    0.0000 C   0  0
   -5.6191   -7.1453    0.0000 O   0  0
   -6.5942   -6.5372    0.0000 C   0  0
   -8.0874   -6.6798    0.0000 C   0  0
   -8.9575   -5.4579    0.0000 C   0  0
   -8.3344   -4.0935    0.0000 C   0  0
   -9.3067   -1.3411    0.0000 C   0  0  1  0  0  0
   -9.7512   -2.4557    0.0000 O   0  0
  -10.0500   -0.3990    0.0000 C   0  0
   -1.6825    8.7294    0.0000 O   0  0
   -7.8731    2.9491    0.0000 O   0  0
   -8.5377    1.2717    0.0000 C   0  0
   -9.4161    0.0548    0.0000 C   0  0
  -10.9093    0.2060    0.0000 C   0  0
  -11.7876   -1.0110    0.0000 N   0  0
  -13.2808   -0.8598    0.0000 C   0  0
  -13.7727    0.2348    0.0000 N   0  0
  -13.9830   -1.8328    0.0000 N   0  0
   -7.8810   -2.2079    0.0000 O   0  0
   -7.1373   -4.3723    0.0000 C   0  0
   -8.4250   -3.6013    0.0000 C   0  0
   -9.7370   -4.3302    0.0000 C   0  0
  -11.0246   -3.5592    0.0000 N   0  0
  -12.3366   -4.2881    0.0000 C   0  0
  -12.3560   -5.4879    0.0000 N   0  0
  -13.3662   -3.6717    0.0000 N   0  0
   -4.8188   -6.2872    0.0000 O   0  0
   -3.0946   -7.7968    0.0000 C   0  0
   -1.8826   -8.6819    0.0000 C   0  0
   -2.0422  -10.1742    0.0000 C   0  0
   -0.8302  -11.0594    0.0000 N   0  0
   -0.9899  -12.5517    0.0000 C   0  0
   -0.0208  -13.2595    0.0000 N   0  0
   -2.0872  -13.0374    0.0000 N   0  0
    7.4833    2.3257    0.0000 H   0  0
   -5.7753   -6.1492    0.0000 H   0  0
   -8.5815   -0.4870    0.0000 H   0  0
  1  2  1  0
  2  3  1  1
  3  4  1  0
  4  5  1  0
  5  6  1  0
  6  7  1  0
  7  8  2  0
  7  9  1  0
  2 10  1  0
 10 11  2  0
 10 12  1  0
 12 13  1  0
 13 14  1  0
 14 15  1  0
 16 15  1  0
 17 16  1  0
 18 17  1  0
 19 18  1  0
 20 19  1  0
 21 20  1  0
 22 21  1  0
 22 23  1  6
 23 24  2  0
 23 25  1  0
 26 25  1  6
 26 27  1  0
 27 28  1  0
 28 29  1  0
 29 30  1  0
 30 31  1  0
 26 32  1  0
 32 33  2  0
 32 34  1  0
 22 35  1  0
 36 35  1  0
 37 36  1  0
 37 38  2  0
 39 37  1  0
 39 40  2  0
 40 41  1  0
 41 42  2  0
 42 43  1  0
 43 44  2  0
 44 39  1  0
 45 43  1  0
 46 45  1  0
 46 47  1  0
 47 48  1  1
 48 49  1  0
 50 49  1  0
 51 50  2  0
 52 51  1  0
 53 52  2  0
 54 53  1  0
 49 54  2  0
 47 55  1  0
 55 56  2  0
 57 55  1  0
 58 57  1  0
 58 59  1  6
 59 60  1  0
 61 60  1  0
 62 61  2  0
 63 62  1  0
 63 64  1  0
 65 63  2  0
 66 65  1  0
 60 66  2  0
 67 58  1  0
 67 68  2  0
 69 67  1  0
 70 69  1  0
 71 70  1  0
 71 72  2  0
 73 71  1  0
 74 73  1  0
 74 75  1  0
 76 75  1  0
 77 76  1  0
 77 78  1  0
 78 79  2  0
 78 80  1  0
 80 81  1  0
 81 82  1  0
 82 83  1  0
 83 84  1  0
 84 85  1  6
 84 86  1  0
 86 87  2  0
 86 88  1  0
 88 89  1  0
 89 90  1  0
 90 91  1  0
 91 92  1  0
 92 93  1  0
 93 94  2  0
 93 95  1  0
 95 96  1  0
 96 97  1  0
 97 98  1  0
 98 99  1  0
 99100  1  1
100101  1  0
102101  1  0
103102  2  0
104103  1  0
105104  2  0
106105  1  0
107106  2  0
108107  1  0
109108  2  0
104109  1  0
110109  1  0
101110  2  0
 99111  1  0
111  1  1  0
111112  2  0
 97113  2  0
 96114  1  1
114115  1  0
116115  1  0
117116  2  0
118117  1  0
119118  2  0
120119  1  0
115120  2  0
 92121  1  0
121122  1  0
123122  1  0
 41123  1  0
123124  2  0
 90125  2  0
 89126  1  1
 82127  2  0
 81128  1  6
128129  1  0
129130  1  0
130131  1  0
131132  1  0
132133  2  0
132134  1  0
 77135  1  6
135136  1  0
136137  2  0
137138  1  0
138139  2  0
139140  1  0
140141  2  0
141142  1  0
142143  2  0
143144  1  0
144145  2  0
145136  1  0
143138  1  0
 75146  2  0
 74147  1  0
147148  1  0
148149  1  0
149150  1  0
150 73  1  0
 70151  1  0
151152  1  1
151153  1  0
 45154  2  0
 20155  2  0
 19156  1  1
156157  1  0
157158  1  0
158159  1  0
159160  1  0
160161  1  0
160162  2  0
 17163  2  0
 16164  1  1
164165  1  0
165166  1  0
166167  1  0
167168  1  0
168169  1  0
168170  2  0
 14171  2  0
 13172  1  1
172173  1  0
173174  1  0
174175  1  0
175176  1  0
176177  2  0
176178  1  0
 92179  1  1
 74180  1  6
 70181  1  6
M  END