
  SciTegic05171617282D

 36 39  0  0  0  0            999 V2000
    2.3383   -1.3500    0.0000 C   0  0
    1.2990   -0.7500    0.0000 N   0  0
    1.2990    0.7500    0.0000 C   0  0
    0.0000    1.5000    0.0000 C   0  0
   -1.2990    0.7500    0.0000 C   0  0
   -1.2990   -0.7500    0.0000 C   0  0
    0.0000   -1.5000    0.0000 C   0  0
   -2.5987   -1.5004    0.0000 C   0  0
   -3.8991   -0.7525    0.0000 C   0  0
   -5.1969   -1.5046    0.0000 C   0  0
   -5.1945   -3.0046    0.0000 C   0  0
   -6.4915   -3.7597    0.0000 N   0  0
   -6.4870   -5.2605    0.0000 C   0  0
   -7.7822   -6.0172    0.0000 N   0  0
   -7.7746   -7.5172    0.0000 C   0  0
   -6.4718   -8.2606    0.0000 C   0  0
   -5.1766   -7.5040    0.0000 C   0  0
   -3.8715   -8.2452    0.0000 C   0  0
   -2.5767   -7.4864    0.0000 C   0  0
   -1.2716   -8.2276    0.0000 C   0  0
   -1.2639   -9.7276    0.0000 C   0  0
    0.0389  -10.4710    0.0000 C   0  0
    1.3341   -9.7144    0.0000 C   0  0
    1.3265   -8.2144    0.0000 C   0  0
    0.0237   -7.4710    0.0000 C   0  0
    0.0192   -5.9702    0.0000 C   0  0
    1.3162   -5.2151    0.0000 C   0  0
    2.3574   -5.8117    0.0000 N   0  0
    1.3126   -4.0151    0.0000 O   0  0
   -5.1842   -6.0041    0.0000 N   0  0
   -6.4643   -9.7614    0.0000 C   0  0
   -7.5001  -10.3673    0.0000 F   0  0
   -5.4218  -10.3558    0.0000 F   0  0
   -6.4576  -10.9614    0.0000 F   0  0
   -3.8943   -3.7525    0.0000 C   0  0
   -2.5964   -3.0004    0.0000 C   0  0
  1  2  1  0
  2  3  1  0
  3  4  1  0
  4  5  1  0
  5  6  1  0
  6  7  1  0
  2  7  1  0
  6  8  1  0
  8  9  2  0
  9 10  1  0
 10 11  2  0
 11 12  1  0
 12 13  1  0
 13 14  2  0
 14 15  1  0
 15 16  2  0
 16 17  1  0
 17 18  1  0
 18 19  1  0
 19 20  1  0
 20 21  2  0
 21 22  1  0
 22 23  2  0
 23 24  1  0
 24 25  2  0
 20 25  1  0
 25 26  1  0
 26 27  1  0
 27 28  1  0
 27 29  2  0
 17 30  2  0
 13 30  1  0
 16 31  1  0
 31 32  1  0
 31 33  1  0
 31 34  1  0
 11 35  1  0
 35 36  2  0
  8 36  1  0
M  END