
  SciTegic04091416462D

 15 16  0  0  0  0            999 V2000
   18.9097   -9.0387    0.0000 C   0  0
   16.0783   -8.2214    0.0000 C   0  0
   16.0771   -9.0409    0.0000 C   0  0
   16.7852   -9.4499    0.0000 C   0  0
   17.4948   -9.0405    0.0000 C   0  0
   17.4920   -8.2178    0.0000 C   0  0
   16.7834   -7.8125    0.0000 N   0  0
   18.2032   -9.4479    0.0000 N   0  0
   18.9090   -8.2211    0.0000 O   0  0
   19.5476   -9.5448    0.0000 C   0  0
   19.5139  -10.3616    0.0000 N   0  0
   20.2812  -10.6452    0.0000 C   0  0
   20.7871  -10.0020    0.0000 S   0  0
   20.3307   -9.3230    0.0000 C   0  0
   20.6121   -8.5558    0.0000 C   0  0
  2  3  2  0
  3  4  1  0
  4  5  2  0
  5  6  1  0
  6  7  2  0
  7  2  1  0
  5  8  1  0
  8  1  1  0
  1  9  2  0
 11 12  2  0
 10 11  1  0
 12 13  1  0
 13 14  1  0
 14 10  2  0
  1 10  1  0
 14 15  1  0
M  END