
  SciTegic10311316212D

 26 29  0  0  0  0            999 V2000
   25.9300  -12.3899    0.0000 C   0  0
   25.9288  -13.2094    0.0000 C   0  0
   26.6369  -13.6184    0.0000 C   0  0
   26.6351  -11.9810    0.0000 C   0  0
   27.3437  -12.3863    0.0000 C   0  0
   27.3440  -13.2049    0.0000 C   0  0
   28.1226  -13.4577    0.0000 S   0  0
   28.6036  -12.7952    0.0000 C   0  0
   28.1222  -12.1332    0.0000 C   0  0
   25.2253  -13.6166    0.0000 N   0  0
   24.4791  -13.2837    0.0000 C   0  0
   23.9318  -13.8905    0.0000 N   0  0
   24.3398  -14.5986    0.0000 N   0  0
   25.1392  -14.4292    0.0000 C   0  0
   25.7449  -14.9732    0.0000 C   0  0
   25.5729  -15.7732    0.0000 C   0  0
   26.1790  -16.3202    0.0000 C   0  0
   26.9573  -16.0684    0.0000 C   0  0
   27.1261  -15.2645    0.0000 C   0  0
   26.5187  -14.7210    0.0000 C   0  0
   24.3098  -12.4842    0.0000 S   0  0
   29.4188  -12.7928    0.0000 C   0  0
   29.8276  -13.5003    0.0000 O   0  0
   29.8271  -12.0849    0.0000 O   0  0
   27.9026  -15.0098    0.0000 Cl  0  0
   26.0081  -17.1194    0.0000 Cl  0  0
  1  2  2  0
  2  3  1  0
  3  6  2  0
  5  4  2  0
  4  1  1  0
  5  6  1  0
  6  7  1  0
  7  8  1  0
  8  9  2  0
  9  5  1  0
 10 11  1  0
 11 12  2  0
 12 13  1  0
 13 14  2  0
 14 10  1  0
  2 10  1  0
 15 16  2  0
 16 17  1  0
 17 18  2  0
 18 19  1  0
 19 20  2  0
 20 15  1  0
 14 15  1  0
 11 21  1  0
 22 23  1  0
 22 24  2  0
  8 22  1  0
 19 25  1  0
 17 26  1  0
M  END