
          11280714522D 1   1.00000     0.00000     0

 22 23  0     0  0            999 V2000
   -0.3750   -3.5917    0.0000 C   0  0  0  0  0  0           0  0  0
    4.6167   -2.3417    0.0000 C   0  0  0  0  0  0           0  0  0
    0.3375   -3.1750    0.0000 C   0  0  0  0  0  0           0  0  0
    0.3292   -2.3500    0.0000 O   0  0  0  0  0  0           0  0  0
    4.6167   -3.1667    0.0000 O   0  0  0  0  0  0           0  0  0
    3.1917   -2.3375    0.0000 N   0  0  0  0  0  0           0  0  0
   -0.3750   -4.4167    0.0000 C   0  0  0  0  0  0           0  0  0
    1.0417   -1.9375    0.0000 C   0  0  0  0  0  0           0  0  0
    1.7625   -2.3417    0.0000 C   0  0  3  0  0  0           0  0  0
    5.3375   -1.9292    0.0000 O   0  0  0  0  0  0           0  0  0
    3.9042   -1.9292    0.0000 C   0  0  0  0  0  0           0  0  0
    1.7667   -3.1667    0.0000 O   0  0  0  0  0  0           0  0  0
    2.4750   -1.9292    0.0000 C   0  0  0  0  0  0           0  0  0
    1.0542   -4.4167    0.0000 C   0  0  0  0  0  0           0  0  0
    1.0542   -3.5875    0.0000 C   0  0  0  0  0  0           0  0  0
   -1.0875   -3.1792    0.0000 C   0  0  0  0  0  0           0  0  0
    0.3375   -4.8292    0.0000 C   0  0  0  0  0  0           0  0  0
   -1.0875   -4.8292    0.0000 C   0  0  0  0  0  0           0  0  0
    6.0500   -2.3417    0.0000 C   0  0  0  0  0  0           0  0  0
    6.7667   -1.9292    0.0000 C   0  0  0  0  0  0           0  0  0
   -1.8000   -3.5917    0.0000 C   0  0  0  0  0  0           0  0  0
   -1.8000   -4.4167    0.0000 C   0  0  0  0  0  0           0  0  0
  2 11  1  0     0  0
  3  1  1  0     0  0
  4  3  1  0     0  0
  5  2  2  0     0  0
  6 13  1  0     0  0
  7  1  1  0     0  0
  8  4  1  0     0  0
  9  8  1  0     0  0
 10  2  1  0     0  0
 11  6  1  0     0  0
 12  9  1  0     0  0
 13  9  1  0     0  0
 14 17  2  0     0  0
 15  3  2  0     0  0
 16  1  2  0     0  0
 17  7  1  0     0  0
 18  7  2  0     0  0
 19 10  1  0     0  0
 20 19  1  0     0  0
 21 16  1  0     0  0
 22 21  2  0     0  0
 15 14  1  0     0  0
 22 18  1  0     0  0
M  END