
          08180812482D 1   1.00000     0.00000     0

 19 20  0     0  0            999 V2000
    0.0069    1.8500    0.0000 N   0  0  0  0  0  0           0  0  0
    0.0057    1.0227    0.0000 C   0  0  0  0  0  0           0  0  0
    0.7206    0.6098    0.0000 N   0  0  0  0  0  0           0  0  0
    1.4370    1.0231    0.0000 C   0  0  0  0  0  0           0  0  0
    1.4341    1.8537    0.0000 C   0  0  0  0  0  0           0  0  0
    0.7188    2.2628    0.0000 C   0  0  0  0  0  0           0  0  0
    2.1471    2.2689    0.0000 C   0  0  0  0  0  0           0  0  0
    2.8631    1.8591    0.0000 N   0  0  3  0  0  0           0  0  0
    2.9515    1.0395    0.0000 C   0  0  0  0  0  0           0  0  0
    3.7592    0.8710    0.0000 C   0  0  0  0  0  0           0  0  0
    4.1690    1.5871    0.0000 S   0  0  0  0  0  0           0  0  0
    3.6146    2.1980    0.0000 C   0  0  0  0  0  0           0  0  0
    2.3403    0.4855    0.0000 C   0  0  0  0  0  0           0  0  0
    4.0976    0.1186    0.0000 C   0  0  0  0  0  0           0  0  0
    4.9184    0.0355    0.0000 C   0  0  0  0  0  0           0  0  0
    5.2567   -0.7169    0.0000 O   0  0  0  0  0  0           0  0  0
    0.7163    3.0878    0.0000 N   0  0  0  0  0  0           0  0  0
   -0.7091    0.6107    0.0000 C   0  0  0  0  0  0           0  0  0
    3.7826    3.0057    0.0000 O   0  0  0  0  0  0           0  0  0
  4  5  1  0     0  0
  2  3  1  0     0  0
  5  6  2  0     0  0
  9 10  2  0     0  0
 10 11  1  0     0  0
 11 12  1  0     0  0
 12  8  1  0     0  0
  6  1  1  0     0  0
  9 13  1  0     0  0
  1  2  2  0     0  0
 10 14  1  0     0  0
  5  7  1  0     0  0
 14 15  1  0     0  0
  3  4  2  0     0  0
 15 16  1  0     0  0
  7  8  1  0     0  0
  6 17  1  0     0  0
  8  9  1  0     0  0
  2 18  1  0     0  0
 12 19  2  0     0  0
M  END