
  SciTegic09261414532D

 49 56  0  0  0  0            999 V2000
   33.0589  -21.5718    0.0000 N   0  0
   32.2732  -21.7791    0.0000 C   0  0
   32.2286  -22.5952    0.0000 N   0  0
   33.5061  -22.2545    0.0000 C   0  0
   32.9910  -22.8843    0.0000 C   0  0
   33.2791  -23.6433    0.0000 C   0  0
   34.0820  -23.7737    0.0000 C   0  0
   34.5961  -23.1389    0.0000 C   0  0
   34.3052  -22.3824    0.0000 C   0  0
   31.5131  -21.4842    0.0000 C   0  0
   31.3915  -20.6750    0.0000 C   0  0
   30.6313  -20.3773    0.0000 C   0  0
   29.9920  -20.8878    0.0000 C   0  0
   30.1180  -21.6995    0.0000 C   0  0
   30.8783  -21.9934    0.0000 C   0  0
   25.7938  -18.9976    0.0000 C   0  0
   25.7926  -19.8171    0.0000 C   0  0
   26.5007  -20.2261    0.0000 C   0  0
   26.4989  -18.5887    0.0000 C   0  0
   27.2075  -18.9940    0.0000 C   0  0
   27.2077  -19.8172    0.0000 C   0  0
   27.9907  -20.0713    0.0000 N   0  0
   28.4744  -19.4052    0.0000 C   0  0
   27.9903  -18.7394    0.0000 N   0  0
   28.2435  -20.8485    0.0000 C   0  0
   29.2884  -19.4035    0.0000 N   0  0
   29.6966  -20.1127    0.0000 C   0  0
   30.5131  -20.1128    0.0000 C   0  0
   30.9222  -19.4044    0.0000 C   0  0
   30.5090  -18.6945    0.0000 C   0  0
   29.6939  -18.6979    0.0000 C   0  0
   31.7394  -19.4030    0.0000 C   0  0
   32.1492  -20.1100    0.0000 O   0  0
   32.9664  -20.1087    0.0000 C   0  0
   27.6968  -21.4559    0.0000 C   0  0
   26.8993  -21.2848    0.0000 C   0  0
   26.3529  -21.8915    0.0000 C   0  0
   26.6054  -22.6696    0.0000 C   0  0
   27.4095  -22.8376    0.0000 C   0  0
   27.9524  -22.2296    0.0000 C   0  0
   33.3762  -20.8157    0.0000 C   0  0
   32.1468  -18.6946    0.0000 O   0  0
   34.1905  -20.7651    0.0000 C   0  0
   34.5544  -20.0334    0.0000 C   0  0
   35.3669  -19.9862    0.0000 C   0  0
   35.7310  -19.2586    0.0000 C   0  0
   35.2826  -18.5750    0.0000 N   0  0
   34.4659  -18.6238    0.0000 C   0  0
   34.0976  -19.3562    0.0000 C   0  0
  1  2  1  0
  2  3  2  0
  3  5  1  0
  4  1  1  0
  4  5  2  0
  5  6  1  0
  6  7  2  0
  7  8  1  0
  8  9  2  0
  9  4  1  0
 10 11  2  0
 11 12  1  0
 12 13  2  0
 13 14  1  0
 14 15  2  0
 15 10  1  0
  2 10  1  0
 16 17  2  0
 17 18  1  0
 18 21  2  0
 20 19  2  0
 19 16  1  0
 20 21  1  0
 21 22  1  0
 22 23  1  0
 23 24  2  0
 24 20  1  0
 22 25  1  0
 26 27  1  0
 27 28  1  0
 28 29  1  0
 29 30  1  0
 30 31  1  0
 31 26  1  0
 23 26  1  0
 29 32  1  0
 32 33  1  0
 33 34  1  0
 25 35  1  0
 35 36  2  0
 36 37  1  0
 37 38  2  0
 38 39  1  0
 39 40  2  0
 40 35  1  0
 34 41  1  0
 41  1  1  0
 32 42  2  0
 41 43  1  0
 43 44  1  0
 44 45  1  0
 44 49  1  0
 45 46  1  0
 46 47  1  0
 47 48  1  0
 48 49  1  0
M  END