
  SciTegic01061111512D

 46 49  0  0  0  0            999 V2000
    6.5134   -7.1921    0.0000 S   0  0
    5.7989   -8.4313    0.0000 C   0  0  2  0  0  0
    6.5134   -8.8429    0.0000 O   0  0
    5.0846   -8.8429    0.0000 C   0  0  2  0  0  0
    4.3701   -8.4313    0.0000 C   0  0  1  0  0  0
    3.6516   -8.8429    0.0000 O   0  0
    4.3701   -7.6037    0.0000 C   0  0  2  0  0  0
    5.0846   -7.1921    0.0000 O   0  0
    3.6516   -7.1921    0.0000 C   0  0
    3.6516   -6.3646    0.0000 O   0  0
    5.0846   -9.6703    0.0000 N   0  0
    5.7528  -10.1542    0.0000 N   0  0
    5.4962  -10.9414    0.0000 N   0  0
    4.6729  -10.9414    0.0000 C   0  0
    4.4163  -10.1542    0.0000 C   0  0
    4.1850  -11.6096    0.0000 C   0  0
    3.3643  -11.5208    0.0000 O   0  0
    4.5218  -12.3625    0.0000 N   0  0
    4.0339  -13.0307    0.0000 C   0  0
    3.2133  -12.9461    0.0000 C   0  0
    2.7296  -13.6143    0.0000 C   0  0
    1.9047  -13.5297    0.0000 C   0  0
    6.5134   -6.3646    0.0000 C   0  0  1  0  0  0
    5.7989   -5.9529    0.0000 C   0  0  2  0  0  0
    5.0846   -6.3646    0.0000 O   0  0
    5.7989   -5.1255    0.0000 C   0  0  2  0  0  0
    6.5134   -4.7138    0.0000 C   0  0  1  0  0  0
    6.5134   -3.8863    0.0000 O   0  0
    7.2319   -5.1255    0.0000 C   0  0  2  0  0  0
    7.2319   -5.9529    0.0000 O   0  0
    7.9463   -4.7138    0.0000 C   0  0
    7.9463   -3.8863    0.0000 O   0  0
    5.0846   -4.7138    0.0000 N   0  0
    4.3316   -5.0507    0.0000 N   0  0
    3.7755   -4.4355    0.0000 N   0  0
    4.1913   -3.7211    0.0000 C   0  0
    4.9957   -3.8890    0.0000 C   0  0
    3.8545   -2.9641    0.0000 C   0  0
    4.3382   -2.2958    0.0000 O   0  0
    3.0337   -2.8793    0.0000 N   0  0
    2.6968   -2.1223    0.0000 C   0  0
    3.1806   -1.4540    0.0000 C   0  0
    2.8479   -0.7012    0.0000 C   0  0
    3.3316   -0.0336    0.0000 C   0  0
    5.7989   -7.6037    0.0000 C   0  0  1  0  0  0
    6.5134   -8.0162    0.0000 H   0  0
 45  2  1  0
  2  3  1  6
  2  4  1  0
  4  5  1  0
  5  6  1  1
  5  7  1  0
  7  8  1  0
  7  9  1  1
  9 10  1  0
 45  8  1  0
 11 12  1  0
 12 13  2  0
 13 14  1  0
 14 15  2  0
 11 15  1  0
 16 17  2  0
 19 20  1  0
 20 21  1  0
 21 22  1  0
 18 19  1  0
 16 18  1  0
 14 16  1  0
  4 11  1  1
 45  1  1  0
 23 24  1  0
 24 25  1  6
 24 26  1  0
 26 27  1  0
 27 28  1  1
 27 29  1  0
 29 30  1  0
 29 31  1  1
 31 32  1  0
 23 30  1  0
 33 34  1  0
 34 35  2  0
 35 36  1  0
 36 37  2  0
 33 37  1  0
 38 39  2  0
 41 42  1  0
 42 43  1  0
 43 44  1  0
 40 41  1  0
 38 40  1  0
 36 38  1  0
 26 33  1  1
 23  1  1  1
 45 46  1  6
M  END