
  CDK    9/16/09,9:47

 40 43  0  0  0  0  0  0  0  0999 V2000
   14.9747  -15.3729    0.0000 C   0  0  0  0  0  0  0  0  0  0  0  0
   14.4921  -14.7039    0.0000 N   0  0  0  0  0  0  0  0  0  0  0  0
   13.7079  -14.9578    0.0000 C   0  0  0  0  0  0  0  0  0  0  0  0
   15.7955  -15.3764    0.0000 C   0  0  0  0  0  0  0  0  0  0  0  0
   16.2094  -16.0880    0.0000 C   0  0  0  0  0  0  0  0  0  0  0  0
   17.0364  -16.0901    0.0000 C   0  0  0  0  0  0  0  0  0  0  0  0
   17.4512  -16.7985    0.0000 C   0  0  0  0  0  0  0  0  0  0  0  0
   18.2762  -16.8024    0.0000 C   0  0  0  0  0  0  0  0  0  0  0  0
   18.6903  -17.5099    0.0000 C   0  0  0  0  0  0  0  0  0  0  0  0
   19.5182  -17.5111    0.0000 C   0  0  0  0  0  0  0  0  0  0  0  0
   19.9279  -18.2244    0.0000 O   0  0  0  0  0  0  0  0  0  0  0  0
   19.9309  -16.7951    0.0000 O   0  0  0  0  0  0  0  0  0  0  0  0
   17.4513  -15.3722    0.0000 O   0  0  0  0  0  0  0  0  0  0  0  0
   18.6893  -16.0846    0.0000 O   0  0  0  0  0  0  0  0  0  0  0  0
   12.9987  -14.5361    0.0000 C   0  0  0  0  0  0  0  0  0  0  0  0
   12.2732  -14.9464    0.0000 N   0  0  0  0  0  0  0  0  0  0  0  0
   13.0055  -13.7079    0.0000 O   0  0  0  0  0  0  0  0  0  0  0  0
   14.4808  -16.0378    0.0000 C   0  0  0  0  0  0  0  0  0  0  0  0
   13.7022  -15.7851    0.0000 C   0  0  0  0  0  0  0  0  0  0  0  0
   12.9802  -16.2051    0.0000 C   0  0  0  0  0  0  0  0  0  0  0  0
   14.4771  -16.8576    0.0000 C   0  0  0  0  0  0  0  0  0  0  0  0
   13.7593  -17.2644    0.0000 C   0  0  0  0  0  0  0  0  0  0  0  0
   13.7537  -18.0875    0.0000 C   0  0  0  0  0  0  0  0  0  0  0  0
   14.4652  -18.5048    0.0000 C   0  0  0  0  0  0  0  0  0  0  0  0
   15.1837  -18.0930    0.0000 C   0  0  0  0  0  0  0  0  0  0  0  0
   15.1858  -17.2713    0.0000 C   0  0  0  0  0  0  0  0  0  0  0  0
   14.4610  -19.3287    0.0000 F   0  0  0  0  0  0  0  0  0  0  0  0
   12.2585  -15.7881    0.0000 C   0  0  0  0  0  0  0  0  0  0  0  0
   11.5374  -16.2070    0.0000 C   0  0  0  0  0  0  0  0  0  0  0  0
   11.5395  -17.0427    0.0000 C   0  0  0  0  0  0  0  0  0  0  0  0
   12.2688  -17.4577    0.0000 C   0  0  0  0  0  0  0  0  0  0  0  0
   12.9870  -17.0364    0.0000 C   0  0  0  0  0  0  0  0  0  0  0  0
   11.5634  -14.5282    0.0000 C   0  0  0  0  0  0  0  0  0  0  0  0
   14.7485  -13.9209    0.0000 C   0  0  0  0  0  0  0  0  0  0  0  0
   11.5732  -13.7050    0.0000 C   0  0  0  0  0  0  0  0  0  0  0  0
   10.8643  -13.2868    0.0000 C   0  0  0  0  0  0  0  0  0  0  0  0
   10.1462  -13.6925    0.0000 C   0  0  0  0  0  0  0  0  0  0  0  0
   10.1415  -14.5206    0.0000 C   0  0  0  0  0  0  0  0  0  0  0  0
   10.8510  -14.9351    0.0000 C   0  0  0  0  0  0  0  0  0  0  0  0
   10.8278  -17.4578    0.0000 F   0  0  0  0  0  0  0  0  0  0  0  0
 19 20  1  0  0  0  0 
  2  3  1  0  0  0  0 
  3 19  2  0  0  0  0 
 21 22  2  0  0  0  0 
  1  4  1  0  0  0  0 
 22 23  1  0  0  0  0 
  4  5  1  0  0  0  0 
 23 24  2  0  0  0  0 
  5  6  1  0  0  0  0 
 24 25  1  0  0  0  0 
  6  7  1  0  0  0  0 
 25 26  2  0  0  0  0 
 26 21  1  0  0  0  0 
 18 21  1  0  0  0  0 
  7  8  1  0  0  0  0 
 24 27  1  0  0  0  0 
  8  9  1  0  0  0  0 
 20 28  2  0  0  0  0 
  9 10  1  0  0  0  0 
 28 29  1  0  0  0  0 
 10 11  1  0  0  0  0 
 29 30  2  0  0  0  0 
 10 12  2  0  0  0  0 
 30 31  1  0  0  0  0 
  6 13  1  1  0  0  0 
 31 32  2  0  0  0  0 
 32 20  1  0  0  0  0 
  8 14  1  1  0  0  0 
 16 33  1  0  0  0  0 
  3 15  1  0  0  0  0 
  2 34  1  0  0  0  0 
 15 16  1  0  0  0  0 
 33 35  2  0  0  0  0 
 15 17  2  0  0  0  0 
 35 36  1  0  0  0  0 
 18 19  1  0  0  0  0 
 36 37  2  0  0  0  0 
 37 38  1  0  0  0  0 
 18  1  2  0  0  0  0 
 38 39  2  0  0  0  0 
 39 33  1  0  0  0  0 
  1  2  1  0  0  0  0 
 30 40  1  0  0  0  0 
M  END