
  SciTegic06181315362D

 26 28  0  0  0  0            999 V2000
    6.1679  -23.2978    0.0000 P   0  0
    5.7604  -24.0062    0.0000 O   0  0
    6.5776  -24.0049    0.0000 O   0  0
    4.7525  -23.3000    0.0000 P   0  0
    4.3450  -24.0084    0.0000 O   0  0
    5.1622  -24.0071    0.0000 O   0  0
    3.3334  -20.8466    0.0000 N   0  0
    3.3322  -21.6661    0.0000 C   0  0
    4.0403  -22.0751    0.0000 N   0  0
    4.7499  -21.6657    0.0000 C   0  0
    5.4583  -22.0731    0.0000 N   0  0
    5.4596  -22.8903    0.0000 C   0  0
    6.8750  -22.8881    0.0000 O   0  0
    4.0442  -22.8926    0.0000 O   0  0
    4.0385  -20.4377    0.0000 C   0  0
    4.7466  -20.8421    0.0000 C   0  0
    5.3500  -20.2937    0.0000 C   0  0
    5.0148  -19.5502    0.0000 C   0  0
    4.2043  -19.6394    0.0000 S   0  0
    5.4201  -18.8406    0.0000 C   0  0
    6.2344  -18.8405    0.0000 C   0  0
    6.6396  -18.1317    0.0000 C   0  0
    6.2275  -17.4249    0.0000 C   0  0
    5.4062  -17.4315    0.0000 C   0  0
    5.0047  -18.1408    0.0000 C   0  0
    6.6318  -16.7148    0.0000 C   0  0
  2  1  2  0
  1  3  1  0
  5  4  1  0
  4  6  2  0
  7  8  2  0
  8  9  1  0
  9 10  2  0
 10 16  1  0
 15  7  1  0
 10 11  1  0
 11 12  1  0
 12  1  1  0
 12  4  1  0
  1 13  1  0
  4 14  1  0
 15 16  2  0
 16 17  1  0
 17 18  2  0
 18 19  1  0
 19 15  1  0
 18 20  1  0
 20 21  2  0
 21 22  1  0
 22 23  2  0
 23 24  1  0
 24 25  2  0
 25 20  1  0
 23 26  1  0
M  END