
  CDK    9/16/09,10:8

 32 34  0  0  0  0  0  0  0  0999 V2000
   -5.0016  -12.1760    0.0000 C   0  0  0  0  0  0  0  0  0  0  0  0
   -5.0027  -13.0020    0.0000 C   0  0  0  0  0  0  0  0  0  0  0  0
   -4.2891  -13.4141    0.0000 C   0  0  0  0  0  0  0  0  0  0  0  0
   -4.2909  -11.7638    0.0000 C   0  0  0  0  0  0  0  0  0  0  0  0
   -3.5767  -12.1724    0.0000 C   0  0  0  0  0  0  0  0  0  0  0  0
   -3.5733  -13.0040    0.0000 C   0  0  0  0  0  0  0  0  0  0  0  0
   -2.8552  -13.4146    0.0000 C   0  0  0  0  0  0  0  0  0  0  0  0
   -2.8621  -11.7512    0.0000 C   0  0  0  0  0  0  0  0  0  0  0  0
   -2.1395  -12.1665    0.0000 C   0  0  0  0  0  0  0  0  0  0  0  0
   -2.1366  -12.9978    0.0000 C   0  0  0  0  0  0  0  0  0  0  0  0
   -1.4163  -13.4092    0.0000 C   0  0  0  0  0  0  0  0  0  0  0  0
   -0.6985  -12.9903    0.0000 C   0  0  0  0  0  0  0  0  0  0  0  0
   -0.7054  -12.1558    0.0000 C   0  0  0  0  0  0  0  0  0  0  0  0
   -1.4262  -11.7482    0.0000 C   0  0  0  0  0  0  0  0  0  0  0  0
   -2.8666  -10.9276    0.0000 O   0  0  0  0  0  0  0  0  0  0  0  0
   -2.8528  -14.2383    0.0000 O   0  0  0  0  0  0  0  0  0  0  0  0
   -1.4327  -10.9246    0.0000 N   0  0  0  0  0  0  0  0  0  0  0  0
    0.0044  -11.7379    0.0000 S   0  0  0  0  0  0  0  0  0  0  0  0
    0.7155  -11.3190    0.0000 O   0  0  0  0  0  0  0  0  0  0  0  0
    0.4224  -12.4476    0.0000 O   0  0  0  0  0  0  0  0  0  0  0  0
   -0.4149  -11.0290    0.0000 O   0  0  0  0  0  0  0  0  0  0  0  0
   -1.4125  -14.2329    0.0000 N   0  0  0  0  0  0  0  0  0  0  0  0
   -0.6974  -14.6414    0.0000 C   0  0  0  0  0  0  0  0  0  0  0  0
   -0.6979  -15.4634    0.0000 C   0  0  0  0  0  0  0  0  0  0  0  0
    0.0165  -15.8718    0.0000 C   0  0  0  0  0  0  0  0  0  0  0  0
    0.7289  -15.4567    0.0000 C   0  0  0  0  0  0  0  0  0  0  0  0
    0.7224  -14.6288    0.0000 C   0  0  0  0  0  0  0  0  0  0  0  0
    0.0075  -14.2240    0.0000 C   0  0  0  0  0  0  0  0  0  0  0  0
   -0.0005  -13.4005    0.0000 C   0  0  0  0  0  0  0  0  0  0  0  0
    1.4446  -15.8643    0.0000 C   0  0  0  0  0  0  0  0  0  0  0  0
   -1.4104  -15.8765    0.0000 C   0  0  0  0  0  0  0  0  0  0  0  0
    1.3935  -10.4413    0.0000 Na  0  0  0  0  0  0  0  0  0  0  0  0
  2  3  1  0  0  0  0 
  8 15  2  0  0  0  0 
  3  6  2  0  0  0  0 
  7 16  2  0  0  0  0 
  5  8  1  0  0  0  0 
 14 17  1  0  0  0  0 
  6  7  1  0  0  0  0 
 13 18  1  0  0  0  0 
  7 10  1  0  0  0  0 
 18 19  1  0  0  0  0 
  9  8  1  0  0  0  0 
 18 20  2  0  0  0  0 
 18 21  2  0  0  0  0 
  5  4  2  0  0  0  0 
 11 22  1  0  0  0  0 
  9 10  2  0  0  0  0 
 22 23  1  0  0  0  0 
  4  1  1  0  0  0  0 
 23 24  2  0  0  0  0 
 10 11  1  0  0  0  0 
 24 25  1  0  0  0  0 
  5  6  1  0  0  0  0 
 25 26  2  0  0  0  0 
 11 12  2  0  0  0  0 
 26 27  1  0  0  0  0 
  1  2  2  0  0  0  0 
 27 28  2  0  0  0  0 
 28 23  1  0  0  0  0 
 12 13  1  0  0  0  0 
 28 29  1  0  0  0  0 
 26 30  1  0  0  0  0 
 13 14  2  0  0  0  0 
 24 31  1  0  0  0  0 
 14  9  1  0  0  0  0 
M  CHG  1  19  -1
M  CHG  1  32   1
M  END