
  SciTegic01181116592D

 67 72  0  0  0  0            999 V2000
   18.4024  -25.3742    0.0000 C   0  0
   18.8235  -26.0863    0.0000 C   0  0
   18.4174  -26.8050    0.0000 C   0  0
   17.5903  -26.8128    0.0000 C   0  0
   17.1710  -26.0959    0.0000 C   0  0
   17.5795  -25.3801    0.0000 C   0  0
   17.1623  -24.6685    0.0000 N   0  0
   16.3413  -24.5872    0.0000 N   0  0
   16.1648  -23.7813    0.0000 C   0  0
   16.8768  -23.3644    0.0000 C   0  0
   17.4932  -23.9128    0.0000 C   0  0
   18.3136  -23.9144    0.0000 C   0  0
   18.7261  -23.1986    0.0000 C   0  0
   19.5503  -23.1989    0.0000 C   0  0
   19.9631  -23.9142    0.0000 C   0  0
   19.5456  -24.6307    0.0000 C   0  0
   18.7227  -24.6269    0.0000 C   0  0
   16.9581  -22.5435    0.0000 C   0  0
   15.4452  -23.3774    0.0000 C   0  0
   14.7356  -23.7983    0.0000 N   0  0
   15.4355  -22.5525    0.0000 O   0  0
   16.3460  -26.1002    0.0000 Cl  0  0
   18.8366  -27.5156    0.0000 Cl  0  0
   20.7881  -23.9160    0.0000 Cl  0  0
   -3.2196  -25.2058    0.0000 C   0  0
   -3.6407  -25.9180    0.0000 C   0  0
   -3.2346  -26.6366    0.0000 C   0  0
   -2.4075  -26.6444    0.0000 C   0  0
   -1.9882  -25.9275    0.0000 C   0  0
   -2.3967  -25.2117    0.0000 C   0  0
   -1.9794  -24.5001    0.0000 N   0  0
   -1.1585  -24.4189    0.0000 N   0  0
   -0.9820  -23.6130    0.0000 C   0  0
   -1.6940  -23.1961    0.0000 C   0  0
   -2.3104  -23.7444    0.0000 C   0  0
   -3.1308  -23.7461    0.0000 C   0  0
   -3.5433  -23.0303    0.0000 C   0  0
   -4.3675  -23.0305    0.0000 C   0  0
   -4.7803  -23.7459    0.0000 C   0  0
   -4.3628  -24.4624    0.0000 C   0  0
   -3.5399  -24.4586    0.0000 C   0  0
   -1.7753  -22.3751    0.0000 C   0  0
   -0.2624  -23.2090    0.0000 C   0  0
    0.4472  -23.6299    0.0000 N   0  0
   -0.2526  -22.3841    0.0000 O   0  0
   -1.1632  -25.9319    0.0000 Cl  0  0
   -3.6538  -27.3472    0.0000 Cl  0  0
   -5.6053  -23.7476    0.0000 Cl  0  0
    1.1665  -23.2259    0.0000 C   0  0
    1.8760  -23.6468    0.0000 C   0  0
    2.5953  -23.2427    0.0000 C   0  0
    3.3049  -23.6636    0.0000 C   0  0
    4.0242  -23.2595    0.0000 C   0  0
    4.7337  -23.6804    0.0000 C   0  0
    5.4530  -23.2764    0.0000 C   0  0
    6.1626  -23.6973    0.0000 C   0  0
    6.8818  -23.2932    0.0000 C   0  0
    7.5914  -23.7141    0.0000 N   0  0
    8.3107  -23.3101    0.0000 C   0  0
    9.0202  -23.7309    0.0000 C   0  0
    9.7395  -23.3269    0.0000 C   0  0
   10.4491  -23.7478    0.0000 C   0  0
   11.1684  -23.3437    0.0000 C   0  0
   11.8779  -23.7646    0.0000 C   0  0
   12.5972  -23.3606    0.0000 C   0  0
   13.3068  -23.7815    0.0000 C   0  0
   14.0261  -23.3774    0.0000 C   0  0
 16 17  2  0
 32 33  2  0
 33 34  1  0
 34 35  2  0
 35 31  1  0
 30 31  1  0
 17 12  1  0
 11 12  1  0
 36 37  2  0
  4  5  1  0
 37 38  1  0
 10 18  1  0
 38 39  2  0
  2  3  1  0
 39 40  1  0
  9 19  1  0
 40 41  2  0
 41 36  1  0
 35 36  1  0
  8  9  2  0
 34 42  1  0
 19 20  1  0
 33 43  1  0
  9 10  1  0
 43 44  1  0
 19 21  2  0
 43 45  2  0
 10 11  2  0
 29 46  1  0
  5 22  1  0
 27 47  1  0
 11  7  1  0
 39 48  1  0
  3 23  1  0
 44 49  1  0
  6  7  1  0
 49 50  1  0
 15 24  1  0
 50 51  1  0
  5  6  2  0
 51 52  1  0
  6  1  1  0
 52 53  1  0
 25 26  2  0
 53 54  1  0
 12 13  2  0
 54 55  1  0
 26 27  1  0
 55 56  1  0
  7  8  1  0
 56 57  1  0
 27 28  2  0
 57 58  1  0
 13 14  1  0
 58 59  1  0
 28 29  1  0
 59 60  1  0
  1  2  2  0
 60 61  1  0
 29 30  2  0
 61 62  1  0
 30 25  1  0
 62 63  1  0
 31 32  1  0
 63 64  1  0
 14 15  2  0
 64 65  1  0
  3  4  2  0
 65 66  1  0
 15 16  1  0
 66 67  1  0
 67 20  1  0
M  END