
          08180812472D 1   1.00000     0.00000     0

 26 29  0     1  0            999 V2000
   -3.1712  -30.1779    0.0000 C   0  0  0  0  0  0           0  0  0
   -3.1712  -29.3529    0.0000 C   0  0  0  0  0  0           0  0  0
   -2.4571  -28.9404    0.0000 C   0  0  0  0  0  0           0  0  0
   -3.8853  -30.5905    0.0000 O   0  0  0  0  0  0           0  0  0
   -2.4571  -30.5905    0.0000 C   0  0  0  0  0  0           0  0  0
   -1.7429  -30.1779    0.0000 C   0  0  0  0  0  0           0  0  0
   -1.0289  -30.5905    0.0000 C   0  0  0  0  0  0           0  0  0
   -0.3148  -30.1779    0.0000 C   0  0  0  0  0  0           0  0  0
   -0.3148  -29.3529    0.0000 C   0  0  1  0  0  0           0  0  0
    0.3993  -28.9404    0.0000 C   0  0  2  0  0  0           0  0  0
    1.1846  -29.1958    0.0000 C   0  0  0  0  0  0           0  0  0
    1.6719  -28.5279    0.0000 C   0  0  0  0  0  0           0  0  0
    1.1846  -27.8601    0.0000 C   0  0  2  0  0  0           0  0  0
    1.9312  -27.5128    0.0000 O   0  0  0  0  0  0           0  0  0
    0.3993  -28.1154    0.0000 C   0  0  2  0  0  0           0  0  0
    0.3993  -27.2904    0.0000 C   0  0  0  0  0  0           0  0  0
   -0.3148  -27.7029    0.0000 C   0  0  0  0  0  0           0  0  0
   -1.0289  -28.1154    0.0000 C   0  0  0  0  0  0           0  0  0
   -1.0289  -28.9404    0.0000 C   0  0  2  0  0  0           0  0  0
   -1.7429  -29.3529    0.0000 C   0  0  1  0  0  0           0  0  0
   -1.7429  -28.5279    0.0000 C   0  0  0  0  0  0           0  0  0
    0.9848  -27.0576    0.0000 C   0  0  0  0  0  0           0  0  0
   -1.7431  -27.7029    0.0000 O   0  0  0  0  0  0           0  0  0
   -1.0289  -29.7654    0.0000 F   0  0  0  0  0  0           0  0  0
   -0.3148  -28.5279    0.0000 H   0  0  0  0  0  0           0  0  0
    0.3993  -29.7654    0.0000 H   0  0  0  0  0  0           0  0  0
  1  2  1  0     0  0
  2  3  1  0     0  0
  1  4  2  0     0  0
  1  5  1  0     0  0
  5  6  2  0     0  0
  6  7  1  0     0  0
  7  8  1  0     0  0
  8  9  1  0     0  0
  9 10  1  0     0  0
 10 11  1  0     0  0
 11 12  1  0     0  0
 12 13  1  0     0  0
 13 14  1  1     0  0
 13 15  1  0     0  0
 10 15  1  0     0  0
 15 16  1  1     0  0
 15 17  1  0     0  0
 17 18  1  0     0  0
 18 19  1  0     0  0
  9 19  1  0     0  0
 19 20  1  0     0  0
  3 20  1  0     0  0
  6 20  1  0     0  0
 20 21  1  1     0  0
 13 22  1  0     0  0
 18 23  2  0     0  0
 19 24  1  6     0  0
  9 25  1  1     0  0
 10 26  1  6     0  0
M  END