
  SciTegic02271217242D

 24 26  0  0  0  0            999 V2000
   21.9747  -14.4066    0.0000 S   0  0
   21.2175  -14.0562    0.0000 O   0  0
   21.2921  -14.8862    0.0000 O   0  0
   22.3844  -15.1207    0.0000 C   0  0
   21.9599  -15.8395    0.0000 C   0  0
   22.3718  -16.5641    0.0000 C   0  0
   23.2060  -16.5693    0.0000 C   0  0
   23.6266  -15.8438    0.0000 C   0  0
   23.2123  -15.1221    0.0000 C   0  0
   22.2500  -13.6167    0.0000 C   0  0
   20.9541  -12.9564    0.0000 N   0  0
   23.0277  -13.3647    0.0000 C   0  0
   23.7352  -13.7730    0.0000 N   0  0
   24.4428  -13.3647    0.0000 C   0  0
   24.4428  -12.5480    0.0000 C   0  0
   23.7352  -12.1397    0.0000 C   0  0
   23.0277  -12.5480    0.0000 N   0  0
   22.2514  -12.2951    0.0000 N   0  0
   21.7708  -12.9564    0.0000 C   0  0
   25.1503  -13.7730    0.0000 C   0  0
   23.7352  -11.3230    0.0000 C   0  0
   24.4497  -10.9105    0.0000 C   0  0
   25.1642  -11.3230    0.0000 N   0  0
   20.5416  -12.2419    0.0000 C   0  0
 10  1  1  0
  6  7  2  0
  7  8  1  0
  1  4  1  0
  8  9  2  0
  9  4  1  0
  2  1  2  0
 12 13  1  0
 13 14  2  0
 14 15  1  0
 15 16  2  0
 16 17  1  0
 12 17  1  0
 18 19  2  0
 19 10  1  0
 17 18  1  0
 12 10  2  0
 14 20  1  0
 16 21  1  0
 11 19  1  0
  4  5  2  0
 21 22  1  0
  1  3  2  0
 22 23  1  0
  5  6  1  0
 11 24  1  0
M  END