
  SciTegic05071316502D

 15 16  0  0  0  0            999 V2000
   19.2810   -1.1308    0.0000 C   0  0
   19.2799   -1.9504    0.0000 C   0  0
   19.9879   -2.3593    0.0000 C   0  0
   19.9861   -0.7220    0.0000 C   0  0
   20.6947   -1.1272    0.0000 C   0  0
   20.6950   -1.9504    0.0000 N   0  0
   21.4780   -2.2046    0.0000 C   0  0
   21.9617   -1.5384    0.0000 C   0  0
   21.4775   -0.8727    0.0000 N   0  0
   21.7312   -2.9839    0.0000 N   0  3
   22.5305   -3.1536    0.0000 O   0  0
   21.1845   -3.5913    0.0000 O   0  5
   22.7823   -1.5366    0.0000 C   0  0
   23.1911   -2.2441    0.0000 O   0  0
   23.1906   -0.8287    0.0000 O   0  0
  1  2  1  0
  2  3  2  0
  3  6  1  0
  5  4  1  0
  4  1  2  0
  5  6  1  0
  6  7  1  0
  7  8  2  0
  8  9  1  0
  9  5  2  0
 10 11  2  0
 10 12  1  0
  7 10  1  0
 13 14  1  0
 13 15  2  0
  8 13  1  0
M  CHG  2  10   1  12  -1
M  END