
  CDK    9/15/10,16:21

 38 40  0  0  0  0  0  0  0  0999 V2000
    3.6500   -1.3750    0.0000 C   0  0  0  0  0  0  0  0  0  0  0  0
    3.5667   -0.5542    0.0000 O   0  0  0  0  0  0  0  0  0  0  0  0
    4.4542   -1.5500    0.0000 O   0  0  0  0  0  0  0  0  0  0  0  0
    6.7250   -5.5917    0.0000 C   0  0  0  0  0  0  0  0  0  0  0  0
    6.7250   -6.4167    0.0000 C   0  0  0  0  0  0  0  0  0  0  0  0
    8.5792   -2.9667    0.0000 C   0  0  0  0  0  0  0  0  0  0  0  0
    2.8417   -1.1917    0.0000 C   0  0  0  0  0  0  0  0  0  0  0  0
    3.7167   -2.1917    0.0000 C   0  0  0  0  0  0  0  0  0  0  0  0
    6.0042   -5.1792    0.0000 O   0  0  0  0  0  0  0  0  0  0  0  0
    4.8667   -0.8375    0.0000 C   0  0  0  0  0  0  0  0  0  0  0  0
    6.1125   -1.5500    0.0000 N   0  0  0  0  0  0  0  0  0  0  0  0
    8.9917   -3.6875    0.0000 C   0  0  0  0  0  0  0  0  0  0  0  0
    8.9917   -2.2542    0.0000 C   0  0  0  0  0  0  0  0  0  0  0  0
    7.4375   -5.1792    0.0000 O   0  0  0  0  0  0  0  0  0  0  0  0
    7.4375   -6.8292    0.0000 O   0  0  0  0  0  0  0  0  0  0  0  0
    4.3125   -0.2167    0.0000 C   0  0  0  0  0  0  0  0  0  0  0  0
    6.0042   -6.8292    0.0000 O   0  0  0  0  0  0  0  0  0  0  0  0
    7.7542   -2.9667    0.0000 O   0  0  0  0  0  0  0  0  0  0  0  0
    8.5667   -1.5375    0.0000 O   0  0  0  0  0  0  0  0  0  0  0  0
    8.5750   -4.4042    0.0000 O   0  0  0  0  0  0  0  0  0  0  0  0
    5.7000   -0.8375    0.0000 C   0  0  0  0  0  0  0  0  0  0  0  0
    6.5250   -2.2625    0.0000 C   0  0  0  0  0  0  0  0  0  0  0  0
   10.2375   -2.9667    0.0000 C   0  0  0  0  0  0  0  0  0  0  0  0
    9.8250   -2.2542    0.0000 C   0  0  0  0  0  0  0  0  0  0  0  0
    9.8250   -3.6875    0.0000 C   0  0  0  0  0  0  0  0  0  0  0  0
    3.0292   -2.6625    0.0000 C   0  0  0  0  0  0  0  0  0  0  0  0
    4.4542   -2.5417    0.0000 C   0  0  0  0  0  0  0  0  0  0  0  0
    2.6042   -0.4042    0.0000 C   0  0  0  0  0  0  0  0  0  0  0  0
    2.2917   -1.8000    0.0000 C   0  0  0  0  0  0  0  0  0  0  0  0
    7.3500   -2.2625    0.0000 C   0  0  0  0  0  0  0  0  0  0  0  0
    7.7375   -1.5417    0.0000 C   0  0  0  0  0  0  0  0  0  0  0  0
    8.9875   -5.1292    0.0000 C   0  0  0  0  0  0  0  0  0  0  0  0
    3.1000   -3.4792    0.0000 C   0  0  0  0  0  0  0  0  0  0  0  0
    4.5292   -3.3625    0.0000 C   0  0  0  0  0  0  0  0  0  0  0  0
    1.8042   -0.2292    0.0000 C   0  0  0  0  0  0  0  0  0  0  0  0
    1.4917   -1.6250    0.0000 C   0  0  0  0  0  0  0  0  0  0  0  0
    1.2417   -0.8375    0.0000 C   0  0  0  0  0  0  0  0  0  0  0  0
    3.8500   -3.8375    0.0000 C   0  0  0  0  0  0  0  0  0  0  0  0
  2  1  1  0  0  0  0 
  3  1  1  0  0  0  0 
  5  4  1  0  0  0  0 
  6 18  1  0  0  0  0 
  7  1  1  0  0  0  0 
  1  8  1  0  0  0  0 
  9  4  1  0  0  0  0 
 10  3  1  0  0  0  0 
 11 21  1  0  0  0  0 
 12  6  2  0  0  0  0 
 13  6  1  0  0  0  0 
 14  4  2  0  0  0  0 
 15  5  2  0  0  0  0 
 16  2  1  0  0  0  0 
 17  5  1  0  0  0  0 
 18 30  1  0  0  0  0 
 19 13  1  0  0  0  0 
 20 12  1  0  0  0  0 
 21 10  1  0  0  0  0 
 22 11  1  0  0  0  0 
 23 25  2  0  0  0  0 
 24 13  2  0  0  0  0 
 25 12  1  0  0  0  0 
 26  8  2  0  0  0  0 
 27  8  1  0  0  0  0 
 28  7  2  0  0  0  0 
 29  7  1  0  0  0  0 
 30 22  1  0  0  0  0 
 31 19  1  0  0  0  0 
 32 20  1  0  0  0  0 
 33 26  1  0  0  0  0 
 34 27  2  0  0  0  0 
 35 28  1  0  0  0  0 
 36 29  2  0  0  0  0 
 37 36  1  0  0  0  0 
 38 34  1  0  0  0  0 
 16 10  1  0  0  0  0 
 38 33  2  0  0  0  0 
 37 35  2  0  0  0  0 
 23 24  1  0  0  0  0 
M  END