
          08180812482D 1   1.00000     0.00000     0

 41 44  0     0  0            999 V2000
   12.3152  -19.5333    0.0000 C   0  0  0  0  0  0           0  0  0
   12.3141  -20.3607    0.0000 C   0  0  0  0  0  0           0  0  0
   13.0289  -20.7735    0.0000 C   0  0  0  0  0  0           0  0  0
   13.0271  -19.1205    0.0000 C   0  0  0  0  0  0           0  0  0
   13.7473  -20.3578    0.0000 C   0  0  0  0  0  0           0  0  0
   13.7425  -19.5297    0.0000 C   0  0  0  0  0  0           0  0  0
   14.3896  -19.0038    0.0000 N   0  0  3  0  0  0           0  0  0
   14.4035  -20.8723    0.0000 N   0  0  3  0  0  0           0  0  0
   15.2017  -19.1780    0.0000 C   0  0  0  0  0  0           0  0  0
   15.2142  -20.6792    0.0000 C   0  0  0  0  0  0           0  0  0
   15.5665  -19.9244    0.0000 N   0  0  3  0  0  0           0  0  0
   15.7355  -21.3187    0.0000 O   0  0  0  0  0  0           0  0  0
   15.7100  -18.5282    0.0000 O   0  0  0  0  0  0           0  0  0
   14.1971  -18.2015    0.0000 C   0  0  0  0  0  0           0  0  0
   14.7955  -17.6337    0.0000 C   0  0  0  0  0  0           0  0  0
   15.5865  -17.8681    0.0000 O   0  0  0  0  0  0           0  0  0
   16.3915  -19.9171    0.0000 C   0  0  0  0  0  0           0  0  0
   16.7976  -19.1990    0.0000 C   0  0  0  0  0  0           0  0  0
   17.6226  -19.1916    0.0000 N   0  0  0  0  0  0           0  0  0
   16.3787  -18.4882    0.0000 O   0  0  0  0  0  0           0  0  0
   18.0287  -18.4735    0.0000 C   0  0  0  0  0  0           0  0  0
   18.8521  -18.4684    0.0000 C   0  0  0  0  0  0           0  0  0
   19.2581  -17.7511    0.0000 C   0  0  0  0  0  0           0  0  0
   18.8392  -17.0394    0.0000 C   0  0  0  0  0  0           0  0  0
   18.0100  -17.0494    0.0000 C   0  0  0  0  0  0           0  0  0
   17.6077  -17.7673    0.0000 C   0  0  0  0  0  0           0  0  0
   14.6030  -16.8315    0.0000 C   0  0  3  0  0  0           0  0  0
   14.3833  -16.0292    0.0000 C   0  0  0  0  0  0           0  0  0
   15.4021  -16.6262    0.0000 C   0  0  0  0  0  0           0  0  0
   13.8057  -17.0435    0.0000 C   0  0  0  0  0  0           0  0  0
   20.0831  -17.7442    0.0000 C   0  0  0  0  0  0           0  0  0
   20.5016  -18.4551    0.0000 C   0  0  0  0  0  0           0  0  0
   21.3266  -18.4482    0.0000 O   0  0  0  0  0  0           0  0  0
   20.0952  -19.1731    0.0000 O   0  0  0  0  0  0           0  0  0
   14.2258  -21.6746    0.0000 C   0  0  3  0  0  0           0  0  0
   14.8718  -22.1817    0.0000 C   0  0  0  0  0  0           0  0  0
   14.8809  -23.0086    0.0000 C   0  0  0  0  0  0           0  0  0
   13.4216  -21.8667    0.0000 C   0  0  0  0  0  0           0  0  0
   14.2445  -23.5316    0.0000 C   0  0  0  0  0  0           0  0  0
   13.0713  -22.6152    0.0000 C   0  0  0  0  0  0           0  0  0
   13.4400  -23.3544    0.0000 C   0  0  0  0  0  0           0  0  0
 18 20  2  0     0  0
  8 10  1  0     0  0
 19 21  1  0     0  0
 21 22  2  0     0  0
  9 11  1  0     0  0
 22 23  1  0     0  0
 10 11  1  0     0  0
 23 24  2  0     0  0
  2  3  1  0     0  0
 24 25  1  0     0  0
 10 12  2  0     0  0
 25 26  2  0     0  0
 26 21  1  0     0  0
  5  6  1  0     0  0
 15 27  1  0     0  0
  9 13  2  0     0  0
 27 28  1  0     0  0
  3  5  2  0     0  0
 27 29  1  0     0  0
  7 14  1  0     0  0
 27 30  1  0     0  0
  6  7  1  0     0  0
 23 31  1  0     0  0
 14 15  1  0     0  0
 31 32  1  0     0  0
  1  2  2  0     0  0
 32 33  1  0     0  0
 15 16  2  0     0  0
 32 34  2  0     0  0
  5  8  1  0     0  0
 11 17  1  0     0  0
 35 36  1  0     0  0
  6  4  2  0     0  0
 36 37  1  0     0  0
 17 18  1  0     0  0
 35 38  1  0     0  0
  7  9  1  0     0  0
 37 39  1  0     0  0
 18 19  1  0     0  0
 38 40  1  0     0  0
  4  1  1  0     0  0
 39 41  1  0     0  0
 40 41  1  0     0  0
  8 35  1  0     0  0
M  END