
          05270816392D 1   1.00000     0.00000     0

 37 43  0     1  0            999 V2000
   10.0087   -5.2021    0.0000 C   0  0  0  0  0  0           0  0  0
   10.0074   -6.0252    0.0000 C   0  0  0  0  0  0           0  0  0
   11.4320   -5.1982    0.0000 C   0  0  0  0  0  0           0  0  0
   10.7229   -4.7894    0.0000 C   0  0  0  0  0  0           0  0  0
   11.4351   -6.0247    0.0000 C   0  0  0  0  0  0           0  0  0
   10.7237   -6.4392    0.0000 C   0  0  0  0  0  0           0  0  0
   10.7224   -7.2614    0.0000 C   0  0  0  0  0  0           0  0  0
   11.4354   -7.6752    0.0000 C   0  0  0  0  0  0           0  0  0
    9.3915   -6.5773    0.0000 N   0  0  0  0  0  0           0  0  0
    9.9379   -7.5159    0.0000 C   0  0  0  0  0  0           0  0  0
   12.1499   -6.4369    0.0000 C   0  0  2  0  0  0           0  0  0
   12.1506   -7.2648    0.0000 C   0  0  2  0  0  0           0  0  0
   12.8641   -7.6756    0.0000 N   0  0  3  0  0  0           0  0  0
   13.5812   -7.2632    0.0000 C   0  0  0  0  0  0           0  0  0
   13.5803   -6.4354    0.0000 C   0  0  1  0  0  0           0  0  0
   12.8624   -6.0199    0.0000 C   0  0  0  0  0  0           0  0  0
   12.1415   -8.0852    0.0000 H   0  0  0  0  0  0           0  0  0
   12.1415   -5.6101    0.0000 H   0  0  0  0  0  0           0  0  0
   14.2948   -6.0229    0.0000 C   0  0  0  0  0  0           0  0  0
   14.2948   -5.1978    0.0000 O   0  0  0  0  0  0           0  0  0
   15.0093   -6.4354    0.0000 N   0  0  3  0  0  0           0  0  0
   15.0042   -7.2657    0.0000 C   0  0  0  0  0  0           0  0  0
   15.7146   -7.6781    0.0000 C   0  0  0  0  0  0           0  0  0
   16.4315   -7.2691    0.0000 N   0  0  3  0  0  0           0  0  0
   16.4335   -6.4431    0.0000 C   0  0  0  0  0  0           0  0  0
   15.7185   -6.0262    0.0000 C   0  0  0  0  0  0           0  0  0
   17.1444   -7.6842    0.0000 C   0  0  0  0  0  0           0  0  0
   17.1364   -8.5081    0.0000 C   0  0  0  0  0  0           0  0  0
   17.8484   -8.9233    0.0000 C   0  0  0  0  0  0           0  0  0
   17.8533   -7.2727    0.0000 C   0  0  0  0  0  0           0  0  0
   12.8638   -8.5007    0.0000 C   0  0  0  0  0  0           0  0  0
    9.6435   -8.2866    0.0000 Cl  0  0  0  0  0  0           0  0  0
   19.3518   -8.7702    0.0000 N   0  0  0  0  0  0           0  0  0
   19.8403   -8.1008    0.0000 O   0  0  0  0  0  0           0  0  0
   19.3545   -7.4296    0.0000 N   0  0  0  0  0  0           0  0  0
   18.5660   -7.6841    0.0000 C   0  0  0  0  0  0           0  0  0
   18.5643   -8.5126    0.0000 C   0  0  0  0  0  0           0  0  0
 12 17  1  1     0  0
  7  8  1  0     0  0
 11 18  1  6     0  0
  8 12  1  0     0  0
 15 19  1  1     0  0
  3  4  2  0     0  0
 19 20  2  0     0  0
  2  9  1  0     0  0
 19 21  1  0     0  0
 21 22  1  0     0  0
  4  1  1  0     0  0
  7 10  2  0     0  0
  9 10  1  0     0  0
 11 12  1  0     0  0
  5  6  2  0     0  0
 21 26  1  0     0  0
 22 23  1  0     0  0
 23 24  1  0     0  0
 24 25  1  0     0  0
 25 26  1  0     0  0
  2  6  1  0     0  0
 24 27  1  0     0  0
 27 28  1  0     0  0
  5  3  1  0     0  0
 28 29  2  0     0  0
 29 37  1  0     0  0
  1  2  2  0     0  0
 36 30  1  0     0  0
 30 27  2  0     0  0
  5 11  1  0     0  0
 13 31  1  0     0  0
 11 16  1  0     0  0
 10 32  1  0     0  0
 36 37  1  0     0  0
 12 13  1  0     0  0
 13 14  1  0     0  0
 34 35  1  0     0  0
 14 15  1  0     0  0
 15 16  1  0     0  0
  6  7  1  0     0  0
 33 34  1  0     0  0
 35 36  2  0     0  0
 37 33  2  0     0  0
M  END