
  SciTegic06051313522D

 21 23  0  0  0  0            999 V2000
    0.4661   -3.0486    0.0000 C   0  0
    1.1758   -2.6391    0.0000 C   0  0
    1.1729   -1.8165    0.0000 C   0  0
    0.4643   -1.4112    0.0000 C   0  0
    1.8791   -1.4052    0.0000 N   0  0
    2.5883   -1.8111    0.0000 C   0  0
   -0.2451   -2.6396    0.0000 C   0  0
   -0.2463   -1.8185    0.0000 C   0  0
   -1.0259   -1.5636    0.0000 N   0  0
   -1.5080   -2.2272    0.0000 O   0  0
   -1.0239   -2.8921    0.0000 N   0  0
    0.4643   -0.5902    0.0000 N   0  3
   -0.2510   -0.1832    0.0000 O   0  0
    1.1711   -0.1801    0.0000 O   0  5
    2.5881   -2.6260    0.0000 C   0  0
    3.2965   -3.0318    0.0000 C   0  0
    4.0036   -2.6205    0.0000 C   0  0
    3.9979   -1.7991    0.0000 C   0  0
    3.2889   -1.3970    0.0000 C   0  0
    4.7026   -1.3854    0.0000 F   0  0
    3.2992   -3.8490    0.0000 F   0  0
  7  1  1  0
  1  2  2  0
  2  3  1  0
  3  4  2  0
  4  8  1  0
  3  5  1  0
  5  6  1  0
  7  8  1  0
  8  9  2  0
  9 10  1  0
 10 11  1  0
 11  7  2  0
 12 13  2  0
 12 14  1  0
  4 12  1  0
  6 15  2  0
 15 16  1  0
 16 17  2  0
 17 18  1  0
 18 19  2  0
 19  6  1  0
 18 20  1  0
 16 21  1  0
M  CHG  2  12   1  14  -1
M  END