
          11280715062D 1   1.00000     0.00000     0

 26 29  0     0  0            999 V2000
    7.2250   -2.1167    0.0000 N   0  0  3  0  0  0           0  0  0
    4.6417   -1.7667    0.0000 C   0  0  0  0  0  0           0  0  0
    4.1167   -2.0500    0.0000 C   0  0  0  0  0  0           0  0  0
    4.0917   -2.6542    0.0000 C   0  0  0  0  0  0           0  0  0
    7.7417   -1.8250    0.0000 C   0  0  0  0  0  0           0  0  0
    6.1792   -2.7167    0.0000 N   0  0  3  0  0  0           0  0  0
    5.1417   -2.6875    0.0000 C   0  0  3  0  0  0           0  0  0
    5.1542   -2.0792    0.0000 C   0  0  0  0  0  0           0  0  0
    4.6042   -2.9750    0.0000 C   0  0  0  0  0  0           0  0  0
    4.6625   -1.1667    0.0000 O   0  0  0  0  0  0           0  0  0
    7.2167   -2.7250    0.0000 C   0  0  0  0  0  0           0  0  0
    6.7042   -1.8167    0.0000 C   0  0  0  0  0  0           0  0  0
    8.2625   -2.1250    0.0000 C   0  0  0  0  0  0           0  0  0
    5.6500   -3.0042    0.0000 C   0  0  0  0  0  0           0  0  0
    6.7042   -3.0250    0.0000 C   0  0  0  0  0  0           0  0  0
    6.1792   -2.1167    0.0000 C   0  0  0  0  0  0           0  0  0
    8.2542   -2.7250    0.0000 O   0  0  0  0  0  0           0  0  0
    3.5625   -2.9417    0.0000 C   0  0  0  0  0  0           0  0  0
    3.6000   -1.7292    0.0000 C   0  0  0  0  0  0           0  0  0
    7.7417   -1.2250    0.0000 C   0  0  0  0  0  0           0  0  0
    8.7792   -1.8250    0.0000 C   0  0  0  0  0  0           0  0  0
    7.7292   -3.0167    0.0000 C   0  0  0  0  0  0           0  0  0
    3.0500   -2.6167    0.0000 C   0  0  0  0  0  0           0  0  0
    3.0667   -2.0125    0.0000 C   0  0  0  0  0  0           0  0  0
    8.2542   -0.9250    0.0000 C   0  0  0  0  0  0           0  0  0
    8.7792   -1.2250    0.0000 C   0  0  0  0  0  0           0  0  0
  2  8  1  0     0  0
  3  4  2  0     0  0
  4  9  1  0     0  0
  5  1  1  0     0  0
  6 16  1  0     0  0
  7 14  1  0     0  0
  8  7  1  0     0  0
  9  7  1  0     0  0
 10  2  2  0     0  0
 11  1  1  0     0  0
 12  1  1  0     0  0
 13  5  2  0     0  0
 14  6  1  0     0  0
 15 11  1  0     0  0
 16 12  1  0     0  0
 17 13  1  0     0  0
 18  4  1  0     0  0
 19  3  1  0     0  0
 20  5  1  0     0  0
 21 13  1  0     0  0
 22 17  1  0     0  0
 23 18  2  0     0  0
 24 23  1  0     0  0
 25 20  2  0     0  0
 26 25  1  0     0  0
  6 15  1  0     0  0
 21 26  2  0     0  0
  2  3  1  0     0  0
 24 19  2  0     0  0
M  END