
  SciTegic06051313522D

 23 25  0  0  0  0            999 V2000
    7.1845   -1.1026    0.0000 S   0  0
    7.8979   -1.5171    0.0000 N   0  0
    7.8963   -2.3412    0.0000 C   0  0
    8.6130   -1.1074    0.0000 C   0  0
    9.3263   -1.5218    0.0000 C   0  0
   10.0414   -1.1121    0.0000 C   0  0
   10.0452   -0.2844    0.0000 C   0  0
    9.3319    0.1366    0.0000 C   0  0
    8.6147   -0.2833    0.0000 N   0  0
    9.3247   -2.3459    0.0000 C   0  0
    8.6162   -2.7674    0.0000 N   0  0
    9.3147   -4.8424    0.0000 C   0  0
    9.3253   -4.0147    0.0000 C   0  0
    8.6154   -3.5945    0.0000 C   0  0
    7.8949   -4.0019    0.0000 C   0  0
    7.8864   -4.8260    0.0000 C   0  0
    8.5963   -5.2462    0.0000 N   0  0
   10.0955   -5.1043    0.0000 N   0  0
   10.1105   -3.7661    0.0000 C   0  0
   10.5883   -4.4419    0.0000 C   0  0
    6.4690   -1.5132    0.0000 C   0  0
    6.5959   -0.5125    0.0000 O   0  0
    7.5917   -0.3833    0.0000 O   0  0
  1  2  1  0
  2  3  1  0
  4  5  1  0
  5  6  2  0
  6  7  1  0
  7  8  2  0
  8  9  1  0
  4  9  2  0
 12 13  1  0
 13 14  2  0
 14 15  1  0
 15 16  2  0
 16 17  1  0
 12 17  2  0
 19 20  2  0
 18 20  1  0
 12 18  1  0
 13 19  1  0
 11 14  1  0
 10 11  1  0
  5 10  1  0
  2  4  1  0
  1 21  1  0
  1 22  2  0
  1 23  2  0
M  END