
  SciTegic05061116452D

 66 74  0  0  0  0            999 V2000
   10.4276  -13.5339    0.0000 C   0  0
   10.4259  -14.3589    0.0000 N   0  0
   11.1395  -14.7729    0.0000 C   0  0
   11.1379  -15.5979    0.0000 C   0  0
   11.8549  -14.3618    0.0000 O   0  0
   10.4218  -16.0057    0.0000 C   0  0
   11.8516  -16.8293    0.0000 C   0  0
   11.8501  -16.0064    0.0000 N   0  0
   11.1339  -17.2447    0.0000 C   0  0
   10.4228  -16.8299    0.0000 C   0  0
    9.7101  -17.2383    0.0000 C   0  0
    9.7074  -18.0614    0.0000 C   0  0
   10.4232  -18.4743    0.0000 C   0  0
   11.1330  -18.0635    0.0000 C   0  0
   12.5652  -17.2375    0.0000 C   0  0
   12.5651  -18.0636    0.0000 C   0  0
   13.2794  -18.4749    0.0000 C   0  0
   13.9942  -18.0613    0.0000 C   0  0
   13.9903  -17.2321    0.0000 C   0  0
   13.2755  -16.8244    0.0000 C   0  0
   13.2720  -15.9994    0.0000 I   0  0
    7.2583   -7.6375    0.0000 C   0  0
    8.6823   -7.6368    0.0000 C   0  0
    7.9704   -7.2208    0.0000 C   0  0
    8.9439   -8.4162    0.0000 N   0  0
    9.7688   -8.4103    0.0000 C   0  0
   10.0181   -7.6239    0.0000 C   0  0
    9.3473   -7.1437    0.0000 C   0  0
    6.5980   -7.1430    0.0000 C   0  0
    5.9237   -7.6183    0.0000 C   0  0
    6.1673   -8.4065    0.0000 C   0  0
    6.9922   -8.4184    0.0000 N   0  0
   10.2585   -9.0742    0.0000 C   0  0
    9.9281   -9.8308    0.0000 C   0  0
    5.6728   -9.0669    0.0000 C   0  0
    5.9975   -9.8251    0.0000 C   0  0
    9.1046   -9.8805    0.0000 N   0  0
   10.2277  -10.6021    0.0000 C   0  0
    5.6638  -10.5766    0.0000 C   0  0  2  0  0  0
    6.2754  -11.1302    0.0000 C   0  0  1  0  0  0
    6.9910  -10.7196    0.0000 C   0  0
    6.8216   -9.9122    0.0000 N   0  0
    8.1783  -11.8036    0.0000 C   0  0
    8.9797  -12.0094    0.0000 C   0  0
    9.5897  -11.1232    0.0000 C   0  0
    8.8955  -10.6732    0.0000 C   0  0
    8.1262  -10.9778    0.0000 C   0  0
    9.2691  -12.7820    0.0000 O   0  0
   11.0254  -10.8124    0.0000 C   0  0
   10.8009   -7.3634    0.0000 C   0  0
   11.4179   -7.9110    0.0000 C   0  0
    9.3404   -6.3188    0.0000 C   0  0
    6.6098   -6.3181    0.0000 C   0  0
    5.9013   -5.8954    0.0000 C   0  0
    5.1428   -7.3521    0.0000 C   0  0
    4.8567  -10.7475    0.0000 C   0  0
    6.1870  -11.9505    0.0000 C   0  0
    5.4326  -12.2837    0.0000 C   0  0
    5.4309  -13.1087    0.0000 C   0  0
    4.7156  -13.5197    0.0000 O   0  0
    6.1445  -13.5227    0.0000 N   0  0
    6.8598  -13.1116    0.0000 C   0  0
    7.5734  -13.5256    0.0000 C   0  0
    8.2887  -13.1145    0.0000 C   0  0
    9.0024  -13.5285    0.0000 C   0  0
    9.7177  -13.1174    0.0000 C   0  0
 30 31  1  0
 32 22  1  0
 15 16  2  0
 26 33  2  0
  7  8  2  0
 33 34  1  0
 16 17  1  0
 31 35  2  0
  8  4  1  0
 35 36  1  0
 45 38  1  0
 17 18  2  0
 37 46  1  0
 34 37  1  0
 38 34  2  0
 41 42  1  0
 18 19  1  0
 39 40  1  0
  3  5  2  0
 19 20  2  0
 20 15  1  0
 36 39  1  0
 40 41  1  0
 42 36  2  0
 41 47  2  0
 46 47  1  0
  7 15  1  0
  9 10  1  0
 44 45  1  0
 20 21  1  0
  2  3  1  0
 10 11  2  0
 43 44  1  0
 45 46  2  0
 47 43  1  0
  4  6  2  0
 44 48  2  0
 22 24  2  0
 38 49  1  0
 23 24  1  0
 27 50  1  0
 27 28  2  0
 50 51  1  0
 11 12  1  0
 28 52  1  0
 25 26  1  0
 29 53  1  0
  6 10  1  0
 53 54  2  0
 12 13  2  0
 30 55  1  0
  1  2  1  0
 39 56  1  6
 23 25  2  0
 40 57  1  1
 26 27  1  0
 57 58  1  0
 28 23  1  0
 58 59  1  0
 31 32  1  0
 59 60  2  0
 13 14  1  0
 59 61  1  0
 29 30  2  0
 61 62  1  0
 14  9  2  0
 62 63  1  0
  9  7  1  0
 63 64  1  0
  3  4  1  0
 64 65  1  0
 22 29  1  0
 65 66  1  0
 66  1  1  0
M  END