
          11280714482D 1   1.00000     0.00000     0

 10 11  0     0  0            999 V2000
    4.2750   -3.0042    0.0000 N   0  0  3  0  0  0           0  0  0
    3.7917   -2.3292    0.0000 C   0  0  0  0  0  0           0  0  0
    5.0542   -2.7417    0.0000 C   0  0  0  0  0  0           0  0  0
    4.2792   -1.6625    0.0000 C   0  0  0  0  0  0           0  0  0
    5.0667   -1.9167    0.0000 C   0  0  0  0  0  0           0  0  0
    4.0167   -3.7917    0.0000 C   0  0  0  0  0  0           0  0  0
    5.7750   -3.1542    0.0000 C   0  0  0  0  0  0           0  0  0
    5.7750   -1.5042    0.0000 C   0  0  0  0  0  0           0  0  0
    6.4917   -2.7417    0.0000 C   0  0  0  0  0  0           0  0  0
    6.4917   -1.9167    0.0000 C   0  0  0  0  0  0           0  0  0
  2  1  1  0     0  0
  3  1  1  0     0  0
  4  2  2  0     0  0
  5  3  2  0     0  0
  6  1  1  0     0  0
  7  3  1  0     0  0
  8  5  1  0     0  0
  9  7  2  0     0  0
 10  9  1  0     0  0
  5  4  1  0     0  0
 10  8  2  0     0  0
M  END