
  SciTegic01061414252D

 16 18  0  0  0  0            999 V2000
    8.3149   -3.4008    0.0000 C   0  0
    8.3138   -4.2203    0.0000 C   0  0
    9.0218   -4.6293    0.0000 C   0  0
    9.0201   -2.9919    0.0000 C   0  0
    9.7287   -3.3972    0.0000 C   0  0
    9.7321   -4.2224    0.0000 C   0  0
   10.4444   -4.6298    0.0000 S   0  0
   11.1580   -4.2165    0.0000 N   0  0
   11.1546   -3.3913    0.0000 C   0  0
   10.4377   -2.9794    0.0000 N   0  0
   10.4316   -2.1660    0.0000 C   0  0
   10.8363   -1.4560    0.0000 C   0  0
   10.0191   -1.4605    0.0000 C   0  0
   10.0292   -5.3324    0.0000 O   0  0
   10.8464   -5.3324    0.0000 O   0  0
    7.6058   -4.6284    0.0000 F   0  0
  1  2  2  0
  2  3  1  0
  3  6  2  0
  5  4  2  0
  4  1  1  0
  5  6  1  0
  5 10  1  0
  6  7  1  0
  7  8  1  0
  8  9  1  0
  9 10  1  0
 12 11  1  0
 13 12  1  0
 11 13  1  0
 10 11  1  0
  7 14  2  0
  7 15  2  0
  2 16  1  0
M  END