
  CDK    9/16/09,9:58

 21 24  0  0  0  0  0  0  0  0999 V2000
   -5.5153   -2.4979    0.0000 C   0  0  0  0  0  0  0  0  0  0  0  0
   -5.5166   -3.3255    0.0000 C   0  0  0  0  0  0  0  0  0  0  0  0
   -4.8036   -3.7383    0.0000 C   0  0  0  0  0  0  0  0  0  0  0  0
   -4.8056   -2.0850    0.0000 C   0  0  0  0  0  0  0  0  0  0  0  0
   -4.0875   -2.4939    0.0000 C   0  0  0  0  0  0  0  0  0  0  0  0
   -4.0869   -3.3209    0.0000 C   0  0  0  0  0  0  0  0  0  0  0  0
   -3.3002   -3.5760    0.0000 N   0  0  0  0  0  0  0  0  0  0  0  0
   -2.8145   -2.9065    0.0000 C   0  0  0  0  0  0  0  0  0  0  0  0
   -3.3011   -2.2378    0.0000 N   0  0  0  0  0  0  0  0  0  0  0  0
   -1.9895   -2.9060    0.0000 N   0  0  0  0  0  0  0  0  0  0  0  0
   -1.5765   -3.6201    0.0000 C   0  0  0  0  0  0  0  0  0  0  0  0
   -1.9889   -4.3312    0.0000 C   0  0  0  0  0  0  0  0  0  0  0  0
   -1.5794   -5.0434    0.0000 C   0  0  0  0  0  0  0  0  0  0  0  0
   -0.7540   -5.0470    0.0000 C   0  0  0  0  0  0  0  0  0  0  0  0
   -0.7510   -3.6142    0.0000 C   0  0  0  0  0  0  0  0  0  0  0  0
   -0.3430   -4.3309    0.0000 C   0  0  0  0  0  0  0  0  0  0  0  0
    0.4798   -4.3349    0.0000 C   0  0  0  0  0  0  0  0  0  0  0  0
    0.8956   -3.6228    0.0000 C   0  0  0  0  0  0  0  0  0  0  0  0
    0.4826   -2.9054    0.0000 C   0  0  0  0  0  0  0  0  0  0  0  0
   -0.3389   -2.9049    0.0000 C   0  0  0  0  0  0  0  0  0  0  0  0
    0.8957   -2.1913    0.0000 Cl  0  0  0  0  0  0  0  0  0  0  0  0
  8 10  1  0  0  0  0 
  5  6  1  0  0  0  0 
 10 11  1  0  0  0  0 
 11 12  1  0  0  0  0 
  2  3  1  0  0  0  0 
  3  6  2  0  0  0  0 
 11 15  1  0  0  0  0 
 12 13  1  0  0  0  0 
 13 14  1  0  0  0  0 
 14 16  1  0  0  0  0 
  1  2  2  0  0  0  0 
  5  4  2  0  0  0  0 
 15 16  2  0  0  0  0 
  6  7  1  0  0  0  0 
 16 17  1  0  0  0  0 
  7  8  1  0  0  0  0 
 17 18  2  0  0  0  0 
  8  9  2  0  0  0  0 
 18 19  1  0  0  0  0 
  9  5  1  0  0  0  0 
 19 20  2  0  0  0  0 
 20 15  1  0  0  0  0 
  4  1  1  0  0  0  0 
 19 21  1  0  0  0  0 
M  END