
  SciTegic11281211512D

 24 25  0  0  0  0            999 V2000
   -6.7135    0.2259    0.0000 O   0  0
   -6.0735    1.4242    0.0000 C   0  0
   -6.7700    1.0666    0.0000 C   0  0
   -6.4312    1.7442    0.0000 C   0  0
   -5.6281    2.0266    0.0000 C   0  0
    0.1318    1.9889    0.0000 C   0  0
   -7.4853    1.6313    0.0000 C   0  0
   -7.1088    2.2148    0.0000 C   0  0
    0.1193    2.8924    0.0000 O   0  0
   -4.0658    2.0266    0.0000 C   0  0
   -3.0054    0.1443    0.0000 C   0  0
   -3.0807    2.0266    0.0000 C   0  0
   -3.6453   -0.2134    0.0000 C   0  0
   -5.5465    0.8972    0.0000 C   0  0
    0.9098    1.5372    0.0000 O   0  0
   -4.8500    1.5748    0.0000 C   0  0
   -5.5465    0.1631    0.0000 S   0  0
   -0.6588    1.5372    0.0000 C   0  0
   -4.2853    0.1631    0.0000 C   0  0
   -2.2211    1.5372    0.0000 C   0  0
   -4.9253   -0.2071    0.0000 C   0  0
   -1.4431    1.9889    0.0000 C   0  0
   -3.0054    0.9693    0.0000 C   0  0
   -2.2085    1.1828    0.0000 C   0  0
  2  3  1  0
  3  1  1  0
  4  1  1  0
  5  4  1  0
  6 18  1  0
  7  3  1  0
  8  4  1  0
  9  6  2  0
 10 16  1  0
 11 13  2  0
 12 10  2  0
 13 19  1  0
 14  2  1  0
 15  6  1  0
 16  5  1  0
 17 14  1  0
 18 22  1  0
 19 21  1  0
 20 12  1  0
 21 17  1  0
 22 20  1  0
  7  8  1  0
  5  2  1  0
 11 23  1  0
 23 24  1  0
M  END