
          08180812482D 1   1.00000     0.00000     0

 17 18  0     0  0            999 V2000
    7.7444    0.6542    0.0000 N   0  0  0  0  0  0           0  0  0
    7.7432   -0.1732    0.0000 C   0  0  0  0  0  0           0  0  0
    8.4581   -0.5860    0.0000 C   0  0  0  0  0  0           0  0  0
    8.4563    1.0670    0.0000 C   0  0  0  0  0  0           0  0  0
    9.1716    0.6578    0.0000 C   0  0  0  0  0  0           0  0  0
    9.1719   -0.1732    0.0000 C   0  0  0  0  0  0           0  0  0
    9.9279    0.9872    0.0000 C   0  0  0  0  0  0           0  0  0
   10.5914    0.4969    0.0000 N   0  3  0  0  0  0           0  0  0
   10.5819   -0.3274    0.0000 C   0  0  0  0  0  0           0  0  0
   11.3644   -0.5886    0.0000 S   0  0  0  0  0  0           0  0  0
   11.8547    0.0749    0.0000 C   0  0  0  0  0  0           0  0  0
   11.3751    0.7461    0.0000 C   0  0  0  0  0  0           0  0  0
   11.6356    1.5289    0.0000 C   0  0  0  0  0  0           0  0  0
   12.6797    0.0683    0.0000 C   0  0  0  0  0  0           0  0  0
   13.0865   -0.6495    0.0000 C   0  0  0  0  0  0           0  0  0
   13.9114   -0.6561    0.0000 O   0  0  0  0  0  0           0  0  0
    8.4583   -1.4110    0.0000 C   0  0  0  0  0  0           0  0  0
  8  9  2  0     0  0
  5  4  2  0     0  0
  4  1  1  0     0  0
  5  6  1  0     0  0
  9 10  1  0     0  0
 10 11  1  0     0  0
 11 12  2  0     0  0
 12  8  1  0     0  0
  2  3  1  0     0  0
 12 13  1  0     0  0
  3  6  2  0     0  0
 11 14  1  0     0  0
  5  7  1  0     0  0
 14 15  1  0     0  0
  1  2  2  0     0  0
 15 16  1  0     0  0
  7  8  1  0     0  0
  3 17  1  0     0  0
M  CHG  1   8   1
M  END