
  SciTegic04091416292D

 19 20  0  0  0  0            999 V2000
   12.4117  -11.2576    0.0000 N   0  0
   13.2366  -11.2576    0.0000 C   0  0  1  0  0  0
   13.4933  -10.4736    0.0000 C   0  0
   12.8242   -9.9869    0.0000 C   0  0  2  0  0  0
   12.1591  -10.4736    0.0000 C   0  0
   11.9818  -11.9614    0.0000 C   0  0
   11.1571  -11.9413    0.0000 C   0  0
   12.3767  -12.6857    0.0000 O   0  0
   10.7272  -12.6458    0.0000 C   0  0
    9.9030  -12.6042    0.0000 C   0  0
    9.6127  -13.3763    0.0000 C   0  0
   10.2574  -13.8912    0.0000 N   0  0
   10.9460  -13.4370    0.0000 O   0  0
   12.8228   -9.1619    0.0000 O   0  0
   13.6455  -11.9746    0.0000 C   0  0
   13.2296  -12.6869    0.0000 O   0  0
   14.4704  -11.9786    0.0000 N   0  0
   14.8864  -11.2662    0.0000 C   0  0
    8.8173  -13.5953    0.0000 C   0  0
  1  2  1  0
  2  3  1  0
  3  4  1  0
  4  5  1  0
  5  1  1  0
  1  6  1  0
  6  7  1  0
  6  8  2  0
  7  9  1  0
  9 10  2  0
 10 11  1  0
 11 12  2  0
 12 13  1  0
 13  9  1  0
  4 14  1  6
  2 15  1  1
 15 16  2  0
 15 17  1  0
 17 18  1  0
 11 19  1  0
M  END