
  SciTegic09291413392D

 14 15  0  0  0  0            999 V2000
    9.0079   -2.6953    0.0000 C   0  0
    9.0072   -3.5146    0.0000 C   0  0
    9.7152   -3.9235    0.0000 C   0  0
   10.4249   -3.5141    0.0000 C   0  0
   10.4221   -2.6914    0.0000 C   0  0
    9.7134   -2.2862    0.0000 C   0  0
   11.1282   -2.2802    0.0000 N   0  0
    8.3445   -2.2181    0.0000 C   0  0
    8.3451   -1.4016    0.0000 C   0  0
    7.5667   -1.1528    0.0000 O   0  0
    7.0895   -1.8162    0.0000 N   0  0
    7.5730   -2.4750    0.0000 C   0  0
    9.0052   -0.9200    0.0000 C   0  0
    7.3252   -3.2537    0.0000 N   0  0
  1  2  2  0
  2  3  1  0
  3  4  2  0
  4  5  1  0
  5  6  2  0
  6  1  1  0
  5  7  1  0
  1  8  1  0
  8  9  2  0
  9 10  1  0
 10 11  1  0
 11 12  2  0
 12  8  1  0
  9 13  1  0
 12 14  1  0
M  END