
          03140815502D 1   1.00000     0.00000     0

 17 19  0     0  0            999 V2000
   -0.4539   -1.9015    0.0000 N   0  0  0  0  0  0           0  0  0
   -0.0090   -2.5970    0.0000 C   0  0  0  0  0  0           0  0  0
    0.8215   -2.5598    0.0000 C   0  0  0  0  0  0           0  0  0
    1.2009   -1.8185    0.0000 C   0  0  0  0  0  0           0  0  0
   -0.0721   -1.1653    0.0000 C   0  0  0  0  0  0           0  0  0
    0.7488   -1.1277    0.0000 C   0  0  0  0  0  0           0  0  0
    1.1249   -0.3991    0.0000 C   0  0  0  0  0  0           0  0  0
    0.6812    0.2923    0.0000 C   0  0  0  0  0  0           0  0  0
   -0.1427    0.2505    0.0000 C   0  0  0  0  0  0           0  0  0
   -0.5151   -0.4785    0.0000 C   0  0  0  0  0  0           0  0  0
   -0.5920    0.9444    0.0000 Cl  0  0  0  0  0  0           0  0  0
    2.0264   -1.7744    0.0000 N   0  0  3  0  0  0           0  0  0
    2.4769   -2.4723    0.0000 C   0  0  0  0  0  0           0  0  0
    3.2990   -2.4305    0.0000 C   0  0  0  0  0  0           0  0  0
    3.6776   -1.6952    0.0000 N   0  0  0  0  0  0           0  0  0
    3.2278   -1.0003    0.0000 C   0  0  0  0  0  0           0  0  0
    2.3994   -1.0409    0.0000 C   0  0  0  0  0  0           0  0  0
  3  4  2  0     0  0
  8  9  1  0     0  0
  4  6  1  0     0  0
  9 10  2  0     0  0
 10  5  1  0     0  0
  1  2  2  0     0  0
  9 11  1  0     0  0
  5  1  1  0     0  0
  4 12  1  0     0  0
 12 13  1  0     0  0
  5  6  2  0     0  0
  2  3  1  0     0  0
  6  7  1  0     0  0
  7  8  2  0     0  0
 12 17  1  0     0  0
 13 14  1  0     0  0
 14 15  1  0     0  0
 15 16  1  0     0  0
 16 17  1  0     0  0
M  END