
  SciTegic09261415472D

  9  9  0  0  0  0            999 V2000
   12.4189  -16.4053    0.0000 N   0  0
   12.9230  -17.0626    0.0000 N   0  0
   12.4563  -17.7447    0.0000 C   0  0
   11.6625  -17.5142    0.0000 C   0  0
   11.6384  -16.6851    0.0000 C   0  0
   11.0101  -18.0192    0.0000 C   0  0
   10.2466  -17.7067    0.0000 C   0  0
    9.5943  -18.2116    0.0000 C   0  0
    8.8308  -17.8991    0.0000 O   0  0
  1  2  1  0
  2  3  2  0
  3  4  1  0
  4  5  2  0
  1  5  1  0
  4  6  1  0
  6  7  1  0
  7  8  1  0
  8  9  1  0
M  END