
          11280715392D 1   1.00000     0.00000     0

 16 18  0     0  0            999 V2000
    1.4000   -4.9792    0.0000 N   0  0  0  0  0  0           0  0  0
    1.9167   -5.2667    0.0000 C   0  0  0  0  0  0           0  0  0
    1.3917   -4.3792    0.0000 C   0  0  0  0  0  0           0  0  0
    2.4375   -4.9667    0.0000 N   0  0  0  0  0  0           0  0  0
    1.9125   -4.0667    0.0000 N   0  0  0  0  0  0           0  0  0
    1.9125   -3.4667    0.0000 N   0  0  0  0  0  0           0  0  0
    1.9167   -5.8792    0.0000 N   0  0  0  0  0  0           0  0  0
    0.8750   -4.0792    0.0000 C   0  0  0  0  0  0           0  0  0
    0.8750   -3.4792    0.0000 C   0  0  0  0  0  0           0  0  0
    1.3875   -3.1667    0.0000 C   0  0  0  0  0  0           0  0  0
    2.9542   -5.2667    0.0000 C   0  0  0  0  0  0           0  0  0
    2.4375   -6.1667    0.0000 C   0  0  0  0  0  0           0  0  0
    0.3500   -4.3792    0.0000 C   0  0  0  0  0  0           0  0  0
    0.3500   -3.1792    0.0000 C   0  0  0  0  0  0           0  0  0
   -0.1625   -4.0792    0.0000 C   0  0  0  0  0  0           0  0  0
   -0.1625   -3.4792    0.0000 C   0  0  0  0  0  0           0  0  0
  2  1  1  0     0  0
  3  1  1  0     0  0
  4  2  2  0     0  0
  5  3  2  0     0  0
  6  5  1  0     0  0
  7  2  1  0     0  0
  8  3  1  0     0  0
  9  8  1  0     0  0
 10  9  1  0     0  0
 11  4  1  0     0  0
 12  7  1  0     0  0
 13  8  2  0     0  0
 14  9  2  0     0  0
 15 13  1  0     0  0
 16 15  2  0     0  0
 12 11  1  0     0  0
 10  6  2  0     0  0
 16 14  1  0     0  0
M  END