
  SciTegic11201309402D

 37 45  0  0  0  0            999 V2000
    8.1805   -0.0750    0.0000 N   0  0
    8.6559   -0.7509    0.0000 C   0  0
    9.4745   -0.6751    0.0000 C   0  0
    9.8225    0.0697    0.0000 C   0  0
    9.3471    0.7456    0.0000 C   0  0
    4.5200    0.9176    0.0000 C   0  0
    5.2214    1.3544    0.0000 C   0  0  2  0  0  0
    5.9458    0.9569    0.0000 C   0  0  1  0  0  0
    5.9650    0.1308    0.0000 C   0  0  2  0  0  0
    6.6861   -0.2633    0.0000 C   0  0  2  0  0  0
    6.6476    1.3888    0.0000 C   0  0
    5.2669   -0.2976    0.0000 C   0  0
    4.5457    0.0930    0.0000 C   0  0
    3.8489   -0.3362    0.0000 C   0  0
    3.8721   -1.1559    0.0000 C   0  0
    4.5981   -1.5445    0.0000 C   0  0
    5.2919   -1.1130    0.0000 C   0  0
    7.3732    0.9902    0.0000 C   0  0
    7.3900    0.1644    0.0000 C   0  0
    8.1535    1.2611    0.0000 C   0  0
    8.6510    0.6023    0.0000 C   0  0
    9.7893    1.4648    0.0000 C   0  0
    9.2867    2.1238    0.0000 C   0  0
    8.4711    2.0183    0.0000 C   0  0
    5.9156    1.7827    0.0000 O   0  0
    6.3291   -1.0991    0.0000 O   0  0
    7.4417   -0.9183    0.0000 H   0  0
    5.1351    0.1121    0.0000 C   0  0
    5.1823    2.1884    0.0000 N   0  0
    4.6997    1.5196    0.0000 C   0  0
    4.4533    2.5816    0.0000 C   0  0
    3.7500    2.1479    0.0000 C   0  0
    2.9223    2.1276    0.0000 C   0  0
    3.3560    1.4241    0.0000 C   0  0
    4.6249   -2.3703    0.0000 O   0  0
    9.6048    2.8864    0.0000 F   0  0
    4.3360    1.8193    0.0000 H   0  0
 17 12  1  0
 18 19  2  0
  2  3  1  0
  3  4  1  0
 19  1  1  0
  1 21  1  0
 20 18  1  0
  4  5  1  0
  6 13  1  0
 20 21  2  0
 21  5  1  0
  8 11  1  0
  5 22  2  0
  9 10  1  0
 22 23  1  0
 10 19  1  0
 23 24  2  0
 24 20  1  0
 18 11  1  0
  8 25  1  1
  1  2  1  0
 17 26  1  0
 10 26  1  0
 10 27  1  1
 12 13  2  0
  9 28  1  1
  6  7  1  0
  7 29  1  0
 13 14  1  0
 29 30  1  0
 28 30  1  0
 12  9  1  0
 29 31  1  0
 14 15  2  0
 31 32  1  0
 33 32  1  0
 34 33  1  0
 32 34  1  0
  8  7  1  0
 15 16  1  0
  8  9  1  0
 16 35  1  0
 16 17  2  0
 23 36  1  0
  7 37  1  6
M  END