
  SciTegic12151614122D

 39 44  0  0  0  0            999 V2000
    3.4400    4.6736    0.0000 C   0  0  1  0  0  0
    3.5533    3.1779    0.0000 C   0  0  2  0  0  0
    2.1749    2.6315    0.0000 C   0  0  1  0  0  0
    1.1949    3.7514    0.0000 O   0  0
    1.9824    5.0281    0.0000 C   0  0  2  0  0  0
    1.7138    1.2033    0.0000 N   0  0
    1.7138   -1.2033    0.0000 N   0  0
    2.5889    0.0182    0.0000 C   0  0
    0.2917   -0.7475    0.0000 C   0  0
    0.2917    0.7475    0.0000 C   0  0
   -1.0028    1.5132    0.0000 N   0  0
   -2.3155    0.7475    0.0000 C   0  0
   -2.3155   -0.7475    0.0000 N   0  0
   -1.0028   -1.5132    0.0000 C   0  0
    4.5707    2.5416    0.0000 O   0  0
    4.3547    5.4503    0.0000 O   0  0
    1.4102    6.4127    0.0000 C   0  0
   -0.9971   -3.0138    0.0000 N   0  0
   -2.2935   -3.7700    0.0000 C   0  0  2  0  0  0
   -3.6464   -3.1521    0.0000 C   0  0
   -4.6475   -4.2692    0.0000 C   0  0
   -3.8944   -5.5664    0.0000 C   0  0
   -2.4279   -5.2511    0.0000 C   0  0  1  0  0  0
   -1.3066   -6.2447    0.0000 O   0  0
   -1.6060   -7.7154    0.0000 C   0  0
   -0.4827   -8.7107    0.0000 C   0  0
   -0.7797  -10.1810    0.0000 C   0  0
    0.3450  -11.1735    0.0000 C   0  0
    1.7669  -10.6957    0.0000 C   0  0
    2.0640   -9.2254    0.0000 C   0  0
    0.9393   -8.2329    0.0000 C   0  0
   -0.0774    6.6109    0.0000 S   0  0
   -0.6506    7.9979    0.0000 C   0  0
   -2.1372    8.1981    0.0000 C   0  0
   -2.7072    9.5856    0.0000 C   0  0
   -1.7907   10.7730    0.0000 C   0  0
   -0.3041   10.5729    0.0000 C   0  0
    0.2660    9.1854    0.0000 C   0  0
   -2.8705    7.2482    0.0000 F   0  0
  1  2  1  0
  2  3  1  0
  3  4  1  0
  4  5  1  0
  5  1  1  0
  3  6  1  6
  6 10  1  0
  9  7  1  0
  7  8  2  0
  8  6  1  0
  9 10  2  0
 10 11  1  0
 11 12  2  0
 12 13  1  0
 13 14  2  0
 14  9  1  0
  2 15  1  1
  1 16  1  1
  5 17  1  6
 14 18  1  0
 19 18  1  1
 19 20  1  0
 20 21  1  0
 21 22  1  0
 22 23  1  0
 23 19  1  0
 23 24  1  6
 24 25  1  0
 25 26  1  0
 26 27  2  0
 27 28  1  0
 28 29  2  0
 29 30  1  0
 30 31  2  0
 31 26  1  0
 17 32  1  0
 32 33  1  0
 33 34  2  0
 34 35  1  0
 35 36  2  0
 36 37  1  0
 37 38  2  0
 38 33  1  0
 34 39  1  0
M  END