
  CDK    9/16/09,9:52

 34 37  0  0  0  0  0  0  0  0999 V2000
   10.6914  -11.7819    0.0000 C   0  0  0  0  0  0  0  0  0  0  0  0
   11.4078  -11.3685    0.0000 C   0  0  0  0  0  0  0  0  0  0  0  0
   11.4050  -10.5380    0.0000 C   0  0  0  0  0  0  0  0  0  0  0  0
   10.6896  -10.1289    0.0000 C   0  0  0  0  0  0  0  0  0  0  0  0
    9.9766  -11.3690    0.0000 C   0  0  0  0  0  0  0  0  0  0  0  0
    9.9732  -10.5401    0.0000 C   0  0  0  0  0  0  0  0  0  0  0  0
   12.1179  -10.1228    0.0000 C   0  0  0  0  0  0  0  0  0  0  0  0
   12.8339  -10.5326    0.0000 N   0  0  0  0  0  0  0  0  0  0  0  0
   12.1148   -9.2978    0.0000 O   0  0  0  0  0  0  0  0  0  0  0  0
   13.5468  -10.1174    0.0000 C   0  0  0  0  0  0  0  0  0  0  0  0
   14.2628  -10.5272    0.0000 C   0  0  0  0  0  0  0  0  0  0  0  0
   14.2628  -11.3511    0.0000 C   0  0  0  0  0  0  0  0  0  0  0  0
   14.9780  -11.7608    0.0000 C   0  0  0  0  0  0  0  0  0  0  0  0
   15.6919  -11.3456    0.0000 C   0  0  0  0  0  0  0  0  0  0  0  0
   15.6861  -10.5163    0.0000 C   0  0  0  0  0  0  0  0  0  0  0  0
   14.9704  -10.1103    0.0000 C   0  0  0  0  0  0  0  0  0  0  0  0
   16.3936  -10.1000    0.0000 C   0  0  0  0  0  0  0  0  0  0  0  0
   17.1113  -10.5090    0.0000 C   0  0  0  0  0  0  0  0  0  0  0  0
   17.8223  -10.0920    0.0000 C   0  0  0  0  0  0  0  0  0  0  0  0
   17.8167   -9.2661    0.0000 C   0  0  0  0  0  0  0  0  0  0  0  0
   17.0942   -8.8590    0.0000 C   0  0  0  0  0  0  0  0  0  0  0  0
   16.3862   -9.2784    0.0000 C   0  0  0  0  0  0  0  0  0  0  0  0
   18.5395  -10.4996    0.0000 C   0  0  0  0  0  0  0  0  0  0  0  0
   19.2512  -10.0822    0.0000 N   0  0  0  0  0  0  0  0  0  0  0  0
   19.9648  -10.4915    0.0000 C   0  0  0  0  0  0  0  0  0  0  0  0
   20.6743  -10.0777    0.0000 C   0  0  0  0  0  0  0  0  0  0  0  0
   20.6729   -9.2523    0.0000 N   0  0  0  0  0  0  0  0  0  0  0  0
   19.9558   -8.8425    0.0000 C   0  0  0  0  0  0  0  0  0  0  0  0
   19.2400   -9.2580    0.0000 C   0  0  0  0  0  0  0  0  0  0  0  0
   16.4085  -11.7544    0.0000 F   0  0  0  0  0  0  0  0  0  0  0  0
   21.3900  -10.4880    0.0000 C   0  0  0  0  0  0  0  0  0  0  0  0
    9.2584  -10.1282    0.0000 C   0  0  0  0  0  0  0  0  0  0  0  0
    9.2577   -9.3032    0.0000 O   0  0  0  0  0  0  0  0  0  0  0  0
    8.5443  -10.5412    0.0000 C   0  0  0  0  0  0  0  0  0  0  0  0
  7  8  1  0  0  0  0 
  3  4  2  0  0  0  0 
 17 18  2  0  0  0  0 
  7  9  2  0  0  0  0 
 18 19  1  0  0  0  0 
  4  6  1  0  0  0  0 
 19 20  2  0  0  0  0 
  8 10  1  0  0  0  0 
 20 21  1  0  0  0  0 
  5  6  2  0  0  0  0 
 21 22  2  0  0  0  0 
 22 17  1  0  0  0  0 
 15 17  1  0  0  0  0 
 10 11  1  0  0  0  0 
 19 23  1  0  0  0  0 
  1  2  2  0  0  0  0 
 23 24  1  0  0  0  0 
 24 25  1  0  0  0  0 
 11 12  2  0  0  0  0 
  5  1  1  0  0  0  0 
 12 13  1  0  0  0  0 
  2  3  1  0  0  0  0 
 13 14  2  0  0  0  0 
 24 29  1  0  0  0  0 
 25 26  1  0  0  0  0 
 26 27  1  0  0  0  0 
 27 28  1  0  0  0  0 
 28 29  1  0  0  0  0 
  3  7  1  0  0  0  0 
 14 30  1  0  0  0  0 
 14 15  1  0  0  0  0 
 26 31  1  1  0  0  0 
  6 32  1  0  0  0  0 
 15 16  2  0  0  0  0 
 32 33  2  0  0  0  0 
 16 11  1  0  0  0  0 
 32 34  1  0  0  0  0 
M  END