
  CDK    9/16/09,10:4

 30 31  0  0  0  0  0  0  0  0999 V2000
   -1.2750    1.6292    0.0000 C   0  0  0  0  0  0  0  0  0  0  0  0
   -0.5605    1.2167    0.0000 N   0  0  0  0  0  0  0  0  0  0  0  0
   -1.9895    1.2167    0.0000 N   0  0  0  0  0  0  0  0  0  0  0  0
   -1.2750    2.4542    0.0000 S   0  0  0  0  0  0  0  0  0  0  0  0
   -2.7039    1.6292    0.0000 C   0  0  0  0  0  0  0  0  0  0  0  0
   -3.4178    1.2135    0.0000 C   0  0  0  0  0  0  0  0  0  0  0  0
   -4.1318    1.6253    0.0000 C   0  0  0  0  0  0  0  0  0  0  0  0
   -4.1323    2.4512    0.0000 C   0  0  0  0  0  0  0  0  0  0  0  0
   -3.4128    2.8636    0.0000 C   0  0  0  0  0  0  0  0  0  0  0  0
   -2.7017    2.4494    0.0000 C   0  0  0  0  0  0  0  0  0  0  0  0
    0.1539    1.6292    0.0000 C   0  0  0  0  0  0  0  0  0  0  0  0
    0.8684    1.2167    0.0000 C   0  0  0  0  0  0  0  0  0  0  0  0
    1.5829    1.6292    0.0000 N   0  0  0  0  0  0  0  0  0  0  0  0
    2.2974    1.2167    0.0000 C   0  0  0  0  0  0  0  0  0  0  0  0
    3.0067   -0.0218    0.0000 C   0  0  0  0  0  0  0  0  0  0  0  0
    3.7221    0.3907    0.0000 N   0  0  0  0  0  0  0  0  0  0  0  0
    3.7195    1.2200    0.0000 C   0  0  0  0  0  0  0  0  0  0  0  0
    3.0053    1.6287    0.0000 C   0  0  0  0  0  0  0  0  0  0  0  0
    3.0004    2.4554    0.0000 N   0  0  0  0  0  0  0  0  0  0  0  0
    2.2844    2.8652    0.0000 O   0  0  0  0  0  0  0  0  0  0  0  0
    3.7133    2.8705    0.0000 O   0  0  0  0  0  0  0  0  0  0  0  0
    2.2924    0.3911    0.0000 N   0  0  0  0  0  0  0  0  0  0  0  0
    3.0062   -0.8468    0.0000 N   0  0  0  0  0  0  0  0  0  0  0  0
    2.2915   -1.2589    0.0000 C   0  0  0  0  0  0  0  0  0  0  0  0
    3.7205   -1.2597    0.0000 C   0  0  0  0  0  0  0  0  0  0  0  0
    4.4352   -0.8476    0.0000 C   0  0  0  0  0  0  0  0  0  0  0  0
    1.5773   -0.8461    0.0000 C   0  0  0  0  0  0  0  0  0  0  0  0
   -4.8462    2.8647    0.0000 C   0  0  0  0  0  0  0  0  0  0  0  0
   -4.8461    1.2125    0.0000 Cl  0  0  0  0  0  0  0  0  0  0  0  0
    4.4325    1.6350    0.0000 C   0  0  0  0  0  0  0  0  0  0  0  0
  1  4  2  0  0  0  0 
  7  8  2  0  0  0  0 
 15 16  2  0  0  0  0 
 16 17  1  0  0  0  0 
  8  9  1  0  0  0  0 
 17 18  2  0  0  0  0 
 18 14  1  0  0  0  0 
  3  5  1  0  0  0  0 
  9 10  2  0  0  0  0 
 10  5  1  0  0  0  0 
 19 20  2  0  0  0  0 
 19 21  1  0  0  0  0 
 18 19  1  0  0  0  0 
  1  3  1  0  0  0  0 
 15 22  1  0  0  0  0 
  5  6  2  0  0  0  0 
 15 23  1  0  0  0  0 
 11 12  1  0  0  0  0 
 23 24  1  0  0  0  0 
  1  2  1  0  0  0  0 
 23 25  1  0  0  0  0 
 12 13  1  0  0  0  0 
 25 26  1  0  0  0  0 
  6  7  1  0  0  0  0 
 24 27  1  0  0  0  0 
 13 14  1  0  0  0  0 
  8 28  1  0  0  0  0 
 11  2  1  0  0  0  0 
  7 29  1  0  0  0  0 
 14 22  2  0  0  0  0 
 17 30  1  0  0  0  0 
M  CHG  1  19   1
M  CHG  1  21  -1
M  END