
  SciTegic12011114592D

 24 26  0  0  0  0            999 V2000
   -5.2014   -4.1250    0.0000 C   0  0
   -5.2026   -4.9523    0.0000 C   0  0
   -4.4878   -5.3652    0.0000 C   0  0
   -4.4896   -3.7122    0.0000 C   0  0
   -3.7742   -4.1213    0.0000 C   0  0
   -3.7754   -4.9544    0.0000 C   0  0
   -3.0585   -5.3697    0.0000 C   0  0
   -2.3358   -4.9565    0.0000 C   0  0
   -2.3346   -4.1234    0.0000 C   0  0
   -3.0561   -3.7035    0.0000 O   0  0
   -3.0608   -6.1947    0.0000 O   0  0
   -1.6209   -3.7152    0.0000 C   0  0
   -0.9071   -4.1312    0.0000 C   0  0
   -0.1921   -3.7212    0.0000 C   0  0
   -0.1897   -2.8953    0.0000 C   0  0
   -0.9082   -2.4812    0.0000 C   0  0
   -1.6202   -2.8936    0.0000 C   0  0
   -4.4881   -6.1902    0.0000 O   0  0
   -1.6225   -5.3710    0.0000 O   0  0
   -5.9160   -3.7126    0.0000 O   0  0
   -4.4920   -2.8872    0.0000 C   0  0
   -3.7788   -2.4726    0.0000 C   0  0
   -3.7813   -1.6476    0.0000 C   0  0
   -3.0631   -2.8829    0.0000 C   0  0
  2  3  1  0
 12 13  2  0
  3  6  2  0
 13 14  1  0
  1  2  2  0
 14 15  2  0
  5  4  2  0
 15 16  1  0
  4  1  1  0
 16 17  2  0
 17 12  1  0
  9 12  1  0
  5 10  1  0
  3 18  1  0
  6  7  1  0
  8 19  1  0
  7  8  1  0
  1 20  1  0
  8  9  2  0
  4 21  1  0
  9 10  1  0
 21 22  2  0
  5  6  1  0
 22 23  1  0
  7 11  2  0
 22 24  1  0
M  END