
          11280715412D 1   1.00000     0.00000     0

 47 51  0     0  0            999 V2000
    0.1042    2.6625    0.0000 S   0  0  3  0  0  0           0  0  0
    0.8167    1.4333    0.0000 C   0  0  0  0  0  0           0  0  0
    0.1042    1.0125    0.0000 N   0  0  0  0  0  0           0  0  0
    0.1042    0.1875    0.0000 C   0  0  0  0  0  0           0  0  0
    0.8167   -0.2167    0.0000 N   0  0  0  0  0  0           0  0  0
    0.8167    2.2583    0.0000 N   0  0  0  0  0  0           0  0  0
    1.5375    1.0208    0.0000 C   0  0  0  0  0  0           0  0  0
    1.5375    0.1875    0.0000 C   0  0  0  0  0  0           0  0  0
    0.1000    3.4875    0.0000 C   0  0  0  0  0  0           0  0  0
    2.2500    1.4333    0.0000 O   0  0  0  0  0  0           0  0  0
   -0.6083   -0.2167    0.0000 N   0  0  3  0  0  0           0  0  0
    5.8250   -3.1042    0.0000 N   0  0  0  0  0  0           0  0  0
    5.1125   -3.5167    0.0000 C   0  0  0  0  0  0           0  0  0
    0.8167    3.8958    0.0000 N   0  0  0  0  0  0           0  0  0
   -0.6958    2.8833    0.0000 O   0  0  0  0  0  0           0  0  0
   -0.1125    1.8708    0.0000 O   0  0  0  0  0  0           0  0  0
    2.9667    1.0250    0.0000 C   0  0  0  0  0  0           0  0  0
    3.6792   -1.8667    0.0000 C   0  0  0  0  0  0           0  0  0
    2.9667   -1.4542    0.0000 C   0  0  0  0  0  0           0  0  0
    6.5417   -3.5125    0.0000 C   0  0  0  0  0  0           0  0  0
    7.2500   -3.0917    0.0000 N   0  0  0  0  0  0           0  0  0
    5.1125   -4.3417    0.0000 O   0  0  0  0  0  0           0  0  0
   -0.6125    3.8958    0.0000 C   0  0  0  0  0  0           0  0  0
    3.6667    1.4458    0.0000 C   0  0  0  0  0  0           0  0  0
   -2.0333   -1.0417    0.0000 O   0  0  0  0  0  0           0  0  0
    0.8125    4.7167    0.0000 C   0  0  0  0  0  0           0  0  0
    2.2542   -0.2167    0.0000 O   0  0  0  0  0  0           0  0  0
    4.3917   -3.1042    0.0000 O   0  0  0  0  0  0           0  0  0
   -0.6208    4.7125    0.0000 C   0  0  0  0  0  0           0  0  0
    0.0917    5.1292    0.0000 C   0  0  0  0  0  0           0  0  0
    3.6625    2.2708    0.0000 O   0  0  0  0  0  0           0  0  0
   -1.3208    0.1958    0.0000 C   0  0  0  0  0  0           0  0  0
   -0.6083   -1.0417    0.0000 C   0  0  0  0  0  0           0  0  0
    2.2542   -1.0500    0.0000 C   0  0  0  0  0  0           0  0  0
    4.3917   -2.2792    0.0000 C   0  0  0  0  0  0           0  0  0
    2.9667    0.2000    0.0000 C   0  0  0  0  0  0           0  0  0
    7.9667   -3.5125    0.0000 C   0  0  0  0  0  0           0  0  0
   -1.3208   -1.4542    0.0000 C   0  0  0  0  0  0           0  0  0
   -2.0333   -0.2167    0.0000 C   0  0  0  0  0  0           0  0  0
    6.5375   -4.3375    0.0000 C   0  0  0  0  0  0           0  0  0
    4.3875    1.0375    0.0000 C   0  0  0  0  0  0           0  0  0
    0.0917    5.9542    0.0000 C   0  0  0  0  0  0           0  0  0
    2.9417    2.6708    0.0000 C   0  0  0  0  0  0           0  0  0
    7.9667   -4.3375    0.0000 C   0  0  0  0  0  0           0  0  0
    3.6792   -0.2042    0.0000 C   0  0  0  0  0  0           0  0  0
    7.2500   -4.7417    0.0000 C   0  0  0  0  0  0           0  0  0
    4.3917    0.2083    0.0000 C   0  0  0  0  0  0           0  0  0
  2  6  1  0     0  0
  3  2  1  0     0  0
  4  3  2  0     0  0
  5  8  2  0     0  0
  6  1  1  0     0  0
  7  2  2  0     0  0
  8  7  1  0     0  0
  9  1  1  0     0  0
 10  7  1  0     0  0
 11  4  1  0     0  0
 12 13  1  0     0  0
 13 28  1  0     0  0
 14  9  2  0     0  0
 15  1  2  0     0  0
 16  1  2  0     0  0
 17 10  1  0     0  0
 18 19  3  0     0  0
 19 34  1  0     0  0
 20 12  1  0     0  0
 21 20  2  0     0  0
 22 13  2  0     0  0
 23  9  1  0     0  0
 24 17  1  0     0  0
 25 38  1  0     0  0
 26 14  1  0     0  0
 27  8  1  0     0  0
 28 35  1  0     0  0
 29 23  2  0     0  0
 30 29  1  0     0  0
 31 24  1  0     0  0
 32 11  1  0     0  0
 33 11  1  0     0  0
 34 27  1  0     0  0
 35 18  1  0     0  0
 36 17  2  0     0  0
 37 21  1  0     0  0
 38 33  1  0     0  0
 39 32  1  0     0  0
 40 20  1  0     0  0
 41 24  2  0     0  0
 42 30  1  0     0  0
 43 31  1  0     0  0
 44 46  1  0     0  0
 45 36  1  0     0  0
 46 40  2  0     0  0
 47 45  2  0     0  0
 26 30  2  0     0  0
  4  5  1  0     0  0
 39 25  1  0     0  0
 47 41  1  0     0  0
 37 44  2  0     0  0
M  END