
  SciTegic09261414532D

 48 55  0  0  0  0            999 V2000
    7.9984   -3.6968    0.0000 N   0  0
    7.2127   -3.9041    0.0000 C   0  0
    7.1681   -4.7202    0.0000 N   0  0
    8.4456   -4.3795    0.0000 C   0  0
    7.9304   -5.0093    0.0000 C   0  0
    8.2186   -5.7683    0.0000 C   0  0
    9.0215   -5.8986    0.0000 C   0  0
    9.5356   -5.2639    0.0000 C   0  0
    9.2447   -4.5074    0.0000 C   0  0
    6.4526   -3.6092    0.0000 C   0  0
    6.3310   -2.8000    0.0000 C   0  0
    5.5707   -2.5023    0.0000 C   0  0
    4.9315   -3.0128    0.0000 C   0  0
    5.0575   -3.8245    0.0000 C   0  0
    5.8178   -4.1184    0.0000 C   0  0
    0.7332   -1.1226    0.0000 C   0  0
    0.7321   -1.9421    0.0000 C   0  0
    1.4401   -2.3511    0.0000 C   0  0
    1.4383   -0.7137    0.0000 C   0  0
    2.1470   -1.1190    0.0000 C   0  0
    2.1472   -1.9421    0.0000 C   0  0
    2.9302   -2.1963    0.0000 N   0  0
    3.4139   -1.5302    0.0000 C   0  0
    2.9298   -0.8644    0.0000 N   0  0
    3.1829   -2.9734    0.0000 C   0  0
    4.2279   -1.5285    0.0000 N   0  0
    4.6361   -2.2377    0.0000 C   0  0
    5.4525   -2.2377    0.0000 C   0  0
    5.8617   -1.5293    0.0000 C   0  0
    5.4485   -0.8194    0.0000 C   0  0
    4.6334   -0.8229    0.0000 C   0  0
    6.6789   -1.5280    0.0000 C   0  0
    7.0887   -2.2350    0.0000 O   0  0
    7.9059   -2.2336    0.0000 C   0  0
    2.6363   -3.5809    0.0000 C   0  0
    1.8387   -3.4098    0.0000 C   0  0
    1.2923   -4.0165    0.0000 C   0  0
    1.5449   -4.7945    0.0000 C   0  0
    2.3490   -4.9625    0.0000 C   0  0
    2.8919   -4.3546    0.0000 C   0  0
    8.3156   -2.9406    0.0000 C   0  0
    7.0863   -0.8196    0.0000 O   0  0
    9.1300   -2.8900    0.0000 C   0  0
    9.5819   -3.5720    0.0000 C   0  0
   10.3940   -3.5220    0.0000 C   0  0
   10.7604   -2.7911    0.0000 N   0  0
   10.3085   -2.1091    0.0000 C   0  0
    9.4902   -2.1579    0.0000 C   0  0
  1  2  1  0
  2  3  2  0
  3  5  1  0
  4  1  1  0
  4  5  2  0
  5  6  1  0
  6  7  2  0
  7  8  1  0
  8  9  2  0
  9  4  1  0
 10 11  2  0
 11 12  1  0
 12 13  2  0
 13 14  1  0
 14 15  2  0
 15 10  1  0
  2 10  1  0
 16 17  2  0
 17 18  1  0
 18 21  2  0
 20 19  2  0
 19 16  1  0
 20 21  1  0
 21 22  1  0
 22 23  1  0
 23 24  2  0
 24 20  1  0
 22 25  1  0
 26 27  1  0
 27 28  1  0
 28 29  1  0
 29 30  1  0
 30 31  1  0
 31 26  1  0
 23 26  1  0
 29 32  1  0
 32 33  1  0
 33 34  1  0
 25 35  1  0
 35 36  2  0
 36 37  1  0
 37 38  2  0
 38 39  1  0
 39 40  2  0
 40 35  1  0
 34 41  1  0
 41  1  1  0
 32 42  2  0
 43 44  1  0
 43 48  1  0
 44 45  1  0
 45 46  1  0
 46 47  1  0
 47 48  1  0
 41 43  1  0
M  END