
  SciTegic12231509382D

 28 29  0  0  1  0            999 V2000
    0.0031   -3.0008    0.0000 S   0  0
    1.2990   -0.7500    0.0000 O   0  0
    0.0000    2.7000    0.0000 O   0  0
   -2.3383    1.3500    0.0000 O   0  0
   -2.3383   -1.3500    0.0000 O   0  0
    3.8972   -0.4477    0.0000 O   0  0
    4.9336    3.1588    0.0000 O   0  0
    2.5951    3.0039    0.0000 N   0  0
    5.1017    6.1219    0.0000 N   0  0
    1.2990    0.7500    0.0000 C   0  0  1  0  0  0
    0.0000    1.5000    0.0000 C   0  0  1  0  0  0
   -1.2990    0.7500    0.0000 C   0  0  1  0  0  0
   -1.2990   -0.7500    0.0000 C   0  0  2  0  0  0
    2.5972    1.5031    0.0000 C   0  0  1  0  0  0
    0.0000   -1.5000    0.0000 C   0  0  1  0  0  0
    3.8968    0.7523    0.0000 C   0  0  1  0  0  0
    3.8933    3.7570    0.0000 C   0  0
    3.8912    5.2578    0.0000 C   0  0  2  0  0  0
    4.9360    1.3523    0.0000 C   0  0
    2.6746    6.1134    0.0000 C   0  0
    3.1332    7.5416    0.0000 C   0  0  2  0  0  0
    4.6332    7.5469    0.0000 C   0  0
    1.0432   -3.5993    0.0000 C   0  0
    2.2458    8.7488    0.0000 C   0  0
    6.2420    5.7483    0.0000 C   0  0
    0.7540    8.5846    0.0000 C   0  0
    0.0433    9.5515    0.0000 C   0  0
    2.1656    0.2509    0.0000 H   0  0
 15  1  1  6
  1 23  1  0
 10  2  1  0
  2 15  1  0
 11  3  1  1
 12  4  1  1
 13  5  1  6
 16  6  1  1
 17  7  2  0
 14  8  1  6
  8 17  1  0
  9 18  1  0
 22  9  1  0
  9 25  1  0
 11 10  1  0
 10 14  1  0
 12 11  1  0
 13 12  1  0
 15 13  1  0
 14 16  1  0
 16 19  1  0
 18 17  1  6
 18 20  1  0
 20 21  1  0
 21 22  1  0
 21 24  1  1
 24 26  1  0
 26 27  1  0
 10 28  1  6
M  END