
  SciTegic06051313552D

 54 60  0  0  0  0            999 V2000
   24.7427  -16.4759    0.0000 O   0  0
   24.7469  -17.2931    0.0000 S   0  0
   25.4525  -16.8809    0.0000 O   0  0
   20.8677  -10.6311    0.0000 O   0  0
   20.4119   -9.9523    0.0000 S   0  0
   20.0520  -10.6864    0.0000 O   0  0
   19.6781   -9.5944    0.0000 O   0  0
   21.0900   -9.4956    0.0000 O   0  0
   16.1411  -12.4395    0.0000 C   0  0
   16.8464  -12.0350    0.0000 N   0  0
   16.8464  -11.2178    0.0000 C   0  0
   16.1411  -10.8051    0.0000 N   0  0
   15.4358  -12.0350    0.0000 C   0  0
   15.4358  -11.2178    0.0000 C   0  0
   14.7320  -10.8115    0.0000 C   0  0
   14.0237  -11.2178    0.0000 C   0  0
   14.0237  -12.0350    0.0000 C   0  0
   14.7320  -12.4459    0.0000 C   0  0
   17.5553  -10.8113    0.0000 C   0  0
   16.1411  -13.2567    0.0000 O   0  0
   17.5535  -12.4446    0.0000 C   0  0
   17.5523  -13.2618    0.0000 C   0  0
   18.2585  -11.2257    0.0000 C   0  0
   18.9669  -10.8199    0.0000 C   0  0
   18.9697  -10.0018    0.0000 C   0  0
   18.2582   -9.5913    0.0000 C   0  0
   17.5527   -9.9995    0.0000 C   0  0
   18.2594  -13.6714    0.0000 C   0  0
   18.2583  -14.4886    0.0000 C   0  0
   18.9654  -14.8982    0.0000 N   0  0
   19.0529  -15.7099    0.0000 N   0  0
   19.8520  -15.8809    0.0000 N   0  0
   20.2616  -15.1738    0.0000 C   0  0
   19.7156  -14.5658    0.0000 C   0  0
   21.0778  -15.1717    0.0000 C   0  0
   21.4846  -14.4629    0.0000 N   0  0
   22.3014  -14.4654    0.0000 C   0  0
   22.7082  -13.7607    0.0000 N   0  0
   21.0719  -13.7609    0.0000 C   0  0
   21.4831  -13.0517    0.0000 C   0  0
   22.2998  -13.0536    0.0000 C   0  0
   22.7075  -12.3512    0.0000 C   0  0
   22.3031  -11.6424    0.0000 C   0  0
   21.4864  -11.6405    0.0000 C   0  0
   21.0741  -12.3474    0.0000 C   0  0
   20.2547  -13.7634    0.0000 O   0  0
   22.7079  -15.1707    0.0000 C   0  0
   22.2966  -15.8781    0.0000 C   0  0
   22.7035  -16.5859    0.0000 C   0  0
   23.5216  -16.5875    0.0000 C   0  0
   23.9310  -15.8754    0.0000 C   0  0
   23.5218  -15.1705    0.0000 C   0  0
   23.9301  -17.2953    0.0000 O   0  0
   25.1558  -18.0031    0.0000 O   0  0
  2  1  2  0
  3  2  2  0
  5  4  2  0
  6  5  2  0
  7  5  1  0
  5  8  1  0
 14 12  1  0
 13  9  1  0
  9 10  1  0
 10 11  1  0
 11 12  2  0
 13 14  1  0
 13 18  2  0
 14 15  2  0
 15 16  1  0
 16 17  2  0
 17 18  1  0
 11 19  1  0
  9 20  2  0
 10 21  1  0
 21 22  1  0
 19 23  2  0
 23 24  1  0
 24 25  2  0
 25 26  1  0
 26 27  2  0
 27 19  1  0
 22 28  1  0
 28 29  1  0
 29 30  1  0
 30 31  1  0
 31 32  2  0
 32 33  1  0
 33 34  2  0
 34 30  1  0
 33 35  1  0
 35 36  1  0
 36 37  1  0
 36 39  1  0
 37 38  2  0
 38 41  1  0
 40 39  1  0
 40 41  2  0
 40 45  1  0
 41 42  1  0
 42 43  2  0
 43 44  1  0
 44 45  2  0
 39 46  2  0
 47 48  2  0
 48 49  1  0
 49 50  2  0
 50 51  1  0
 51 52  2  0
 52 47  1  0
 37 47  1  0
 25  7  1  0
 50 53  1  0
 53  2  1  0
  2 54  1  0
M  END