
          11280715162D 1   1.00000     0.00000     0

 50 54  0     0  0            999 V2000
    3.0375    0.2833    0.0000 C   0  0  0  0  0  0           0  0  0
    3.5667    0.5750    0.0000 C   0  0  0  0  0  0           0  0  0
   -2.6833   -1.2375    0.0000 N   0  0  3  0  0  0           0  0  0
    2.5250    0.5958    0.0000 N   0  0  0  0  0  0           0  0  0
   -3.1958   -1.5417    0.0000 C   0  0  0  0  0  0           0  0  0
   -1.6583   -0.6042    0.0000 N   0  0  3  0  0  0           0  0  0
   -0.1083   -0.2750    0.0000 C   0  0  3  0  0  0           0  0  0
    0.4167   -0.5625    0.0000 O   0  0  0  0  0  0           0  0  0
   -0.6208   -0.5875    0.0000 C   0  0  0  0  0  0           0  0  0
    3.0250   -0.3167    0.0000 O   0  0  0  0  0  0           0  0  0
    4.0792    0.2625    0.0000 C   0  0  0  0  0  0           0  0  0
    6.1417   -0.3750    0.0000 C   0  0  0  0  0  0           0  0  0
   -0.1208    0.3208    0.0000 C   0  0  0  0  0  0           0  0  0
   -2.6958   -0.6292    0.0000 C   0  0  0  0  0  0           0  0  0
   -2.1583   -1.5250    0.0000 C   0  0  0  0  0  0           0  0  0
   -3.1833   -2.1417    0.0000 C   0  0  0  0  0  0           0  0  0
    6.1542    0.2250    0.0000 O   0  0  0  0  0  0           0  0  0
   -1.1458   -0.2917    0.0000 C   0  0  0  0  0  0           0  0  0
    2.0000    0.3083    0.0000 C   0  0  0  0  0  0           0  0  0
   -0.6458    0.6083    0.0000 C   0  0  0  0  0  0           0  0  0
    0.3917    0.6333    0.0000 C   0  0  0  0  0  0           0  0  0
   -2.1833   -0.3167    0.0000 C   0  0  0  0  0  0           0  0  0
   -1.6458   -1.2125    0.0000 C   0  0  0  0  0  0           0  0  0
    0.9417   -0.2667    0.0000 C   0  0  0  0  0  0           0  0  0
   -0.1458    1.5208    0.0000 C   0  0  0  0  0  0           0  0  0
    6.6542   -0.6875    0.0000 O   0  0  0  0  0  0           0  0  0
    0.3792    1.2333    0.0000 C   0  0  0  0  0  0           0  0  0
   -0.6583    1.2083    0.0000 C   0  0  0  0  0  0           0  0  0
   -0.1583    2.1208    0.0000 C   0  0  0  0  0  0           0  0  0
    3.5667    1.1750    0.0000 C   0  0  0  0  0  0           0  0  0
    1.4792    0.6208    0.0000 C   0  0  0  0  0  0           0  0  0
    1.9792   -0.2917    0.0000 C   0  0  0  0  0  0           0  0  0
    0.9542    0.3250    0.0000 C   0  0  0  0  0  0           0  0  0
    1.4542   -0.5792    0.0000 C   0  0  0  0  0  0           0  0  0
    4.0667   -0.3292    0.0000 O   0  0  0  0  0  0           0  0  0
   -2.6458   -2.4292    0.0000 O   0  0  0  0  0  0           0  0  0
   -3.7208   -1.2542    0.0000 C   0  0  0  0  0  0           0  0  0
    5.6167   -0.6625    0.0000 C   0  0  0  0  0  0           0  0  0
    0.3542    2.4333    0.0000 C   0  0  3  0  0  0           0  0  0
    4.6042    0.5583    0.0000 C   0  0  0  0  0  0           0  0  0
   -3.6875   -2.4542    0.0000 C   0  0  0  0  0  0           0  0  0
    4.5792   -0.6417    0.0000 C   0  0  0  0  0  0           0  0  0
   -2.6333   -3.0292    0.0000 C   0  0  0  0  0  0           0  0  0
    5.1042   -0.3542    0.0000 C   0  0  0  0  0  0           0  0  0
    4.0917    1.4708    0.0000 C   0  0  0  0  0  0           0  0  0
    0.3417    3.0333    0.0000 C   0  0  0  0  0  0           0  0  0
    0.8792    2.1458    0.0000 C   0  0  0  0  0  0           0  0  0
   -4.2333   -1.5667    0.0000 C   0  0  0  0  0  0           0  0  0
    4.6167    1.1583    0.0000 C   0  0  0  0  0  0           0  0  0
   -4.2208   -2.1667    0.0000 C   0  0  0  0  0  0           0  0  0
  2  1  1  0     0  0
  3 15  1  0     0  0
  4  1  1  0     0  0
  5  3  1  0     0  0
  6 18  1  0     0  0
  7  8  1  0     0  0
  8 24  1  0     0  0
  9  7  1  0     0  0
 10  1  2  0     0  0
 11  2  2  0     0  0
 12 38  1  0     0  0
 13  7  1  0     0  0
 14 22  1  0     0  0
 15 23  1  0     0  0
 16  5  2  0     0  0
 17 12  2  0     0  0
 18  9  1  0     0  0
 19  4  1  0     0  0
 20 13  1  0     0  0
 21 13  2  0     0  0
 22  6  1  0     0  0
 23  6  1  0     0  0
 24 34  2  0     0  0
 25 27  2  0     0  0
 26 12  1  0     0  0
 27 21  1  0     0  0
 28 20  2  0     0  0
 29 25  1  0     0  0
 30  2  1  0     0  0
 31 19  1  0     0  0
 32 19  2  0     0  0
 33 31  2  0     0  0
 34 32  1  0     0  0
 35 11  1  0     0  0
 36 16  1  0     0  0
 37  5  1  0     0  0
 38 44  1  0     0  0
 39 29  1  0     0  0
 40 11  1  0     0  0
 41 16  1  0     0  0
 42 35  1  0     0  0
 43 36  1  0     0  0
 44 42  1  0     0  0
 45 30  2  0     0  0
 46 39  1  0     0  0
 47 39  1  0     0  0
 48 37  2  0     0  0
 49 45  1  0     0  0
 50 48  1  0     0  0
 33 24  1  0     0  0
 40 49  2  0     0  0
 28 25  1  0     0  0
  3 14  1  0     0  0
 41 50  2  0     0  0
M  END