
          11280714442D 1   1.00000     0.00000     0

 19 19  0     0  0            999 V2000
    5.8625   -2.1417    0.0000 C   0  0  0  0  0  0           0  0  0
    5.1667   -2.5917    0.0000 C   0  0  0  0  0  0           0  0  0
    6.5917   -2.5250    0.0000 O   0  0  0  0  0  0           0  0  0
    9.4500   -2.3917    0.0000 N   0  0  0  0  0  0           0  0  0
    5.8250   -1.3250    0.0000 O   0  0  0  0  0  0           0  0  0
   10.1417   -1.9542    0.0000 C   0  0  3  0  0  0           0  0  0
    4.4292   -2.2042    0.0000 C   0  0  0  0  0  0           0  0  0
    5.2042   -3.4125    0.0000 C   0  0  0  0  0  0           0  0  0
    8.0167   -2.4625    0.0000 C   0  0  3  0  0  0           0  0  0
    7.2875   -2.0792    0.0000 C   0  0  0  0  0  0           0  0  0
    8.7167   -2.0167    0.0000 C   0  0  0  0  0  0           0  0  0
    3.7792   -3.4792    0.0000 C   0  0  0  0  0  0           0  0  0
    3.7417   -2.6542    0.0000 C   0  0  0  0  0  0           0  0  0
    4.5167   -3.8542    0.0000 C   0  0  0  0  0  0           0  0  0
    8.0542   -3.2875    0.0000 O   0  0  0  0  0  0           0  0  0
    3.0792   -3.9250    0.0000 O   0  0  0  0  0  0           0  0  0
   10.1042   -1.1292    0.0000 C   0  0  0  0  0  0           0  0  0
   10.7000   -1.3417    0.0000 C   0  0  0  0  0  0           0  0  0
   10.8750   -2.3292    0.0000 C   0  0  0  0  0  0           0  0  0
  2  1  1  0     0  0
  3  1  1  0     0  0
  4 11  1  0     0  0
  5  1  2  0     0  0
  6  4  1  0     0  0
  7  2  2  0     0  0
  8  2  1  0     0  0
  9 10  1  0     0  0
 10  3  1  0     0  0
 11  9  1  0     0  0
 12 14  1  0     0  0
 13  7  1  0     0  0
 14  8  2  0     0  0
 15  9  1  0     0  0
 16 12  1  0     0  0
 17  6  1  0     0  0
 18  6  1  0     0  0
 19  6  1  0     0  0
 12 13  2  0     0  0
M  END