
  SciTegic05281317142D

 35 38  0  0  0  0            999 V2000
    3.8943   -3.7525    0.0000 C   0  0
    5.1945   -3.0045    0.0000 C   0  0
    5.1969   -1.5045    0.0000 C   0  0
    3.8991   -0.7525    0.0000 C   0  0
    2.5987   -1.5004    0.0000 C   0  0
    2.5965   -3.0004    0.0000 C   0  0
    1.2990   -0.7500    0.0000 C   0  0
    0.0000   -1.5000    0.0000 N   0  0
   -1.2990   -0.7500    0.0000 C   0  0
   -1.2990    0.7500    0.0000 C   0  0
    0.0000    1.5000    0.0000 C   0  0
    1.2990    0.7500    0.0000 C   0  0
    6.4963   -0.7535    0.0000 O   0  0
    6.4965    0.4465    0.0000 C   0  0
   -2.5973    1.5031    0.0000 C   0  0
   -2.5951    3.0039    0.0000 C   0  0
   -1.3786    3.8595    0.0000 S   0  0
   -1.8372    5.2877    0.0000 C   0  0
   -3.3372    5.2929    0.0000 N   0  0
   -3.8056    3.8679    0.0000 C   0  0
   -1.1285    6.2561    0.0000 S   0  0
   -4.9460    3.4943    0.0000 O   0  0
   -4.2161    6.5062    0.0000 C   0  0  2  0  0  0
   -3.6062    7.8775    0.0000 C   0  0
   -2.4127    8.0030    0.0000 O   0  0
   -4.3112    8.8486    0.0000 O   0  0
   -5.7091    6.3524    0.0000 C   0  0
   -6.5895    7.5678    0.0000 C   0  0
   -8.0819    7.4162    0.0000 C   0  0
   -8.9594    8.6328    0.0000 C   0  0
   -8.3446   10.0010    0.0000 C   0  0
   -6.8523   10.1527    0.0000 C   0  0
   -5.9748    8.9361    0.0000 C   0  0
    6.4916   -3.7597    0.0000 O   0  0
    6.4879   -4.9597    0.0000 C   0  0
  8  9  1  0
  4  5  1  0
  9 10  2  0
 17 18  1  0
 18 19  1  0
 19 20  1  0
 20 16  1  0
  2  3  1  0
 18 21  2  0
 10 11  1  0
 20 22  2  0
  5  6  2  0
 19 23  1  0
 11 12  2  0
 23 24  1  0
 12  7  1  0
 24 25  1  0
  5  7  1  0
 24 26  2  0
  6  1  1  0
 23 27  1  1
  3 13  1  0
 27 28  1  0
  1  2  2  0
 28 29  2  0
 13 14  1  0
 29 30  1  0
  3  4  2  0
 30 31  2  0
 10 15  1  0
 31 32  1  0
  7  8  2  0
 32 33  2  0
 33 28  1  0
 15 16  2  0
  2 34  1  0
 16 17  1  0
 34 35  1  0
M  END