
  CDK    9/16/09,10:2

 79 83  0  0  0  0  0  0  0  0999 V2000
   10.5141   -0.6228    0.0000 C   0  0  0  0  0  0  0  0  0  0  0  0
   11.9437   -0.6460    0.0000 O   0  0  0  0  0  0  0  0  0  0  0  0
   11.2371   -0.2226    0.0000 C   0  0  0  0  0  0  0  0  0  0  0  0
    9.8062   -0.1985    0.0000 C   0  0  0  0  0  0  0  0  0  0  0  0
    9.8183    0.6286    0.0000 C   0  0  0  0  0  0  0  0  0  0  0  0
    9.1126    1.0515    0.0000 C   0  0  0  0  0  0  0  0  0  0  0  0
    9.1246    1.8740    0.0000 O   0  0  0  0  0  0  0  0  0  0  0  0
   11.9682    1.0016    0.0000 C   0  0  0  0  0  0  0  0  0  0  0  0
   11.2741    2.2426    0.0000 O   0  0  0  0  0  0  0  0  0  0  0  0
   11.9800    1.8206    0.0000 C   0  0  0  0  0  0  0  0  0  0  0  0
   12.7126    3.0433    0.0000 C   0  0  0  0  0  0  0  0  0  0  0  0
   14.1448    3.0186    0.0000 O   0  0  0  0  0  0  0  0  0  0  0  0
   13.4366    3.4478    0.0000 C   0  0  0  0  0  0  0  0  0  0  0  0
   12.0069    3.4628    0.0000 C   0  0  0  0  0  0  0  0  0  0  0  0
   12.0190    4.3012    0.0000 C   0  0  0  0  0  0  0  0  0  0  0  0
   11.3134    4.7234    0.0000 C   0  0  0  0  0  0  0  0  0  0  0  0
   12.7429    4.6967    0.0000 C   0  0  0  0  0  0  0  0  0  0  0  0
   14.1703    4.6738    0.0000 C   0  0  0  0  0  0  0  0  0  0  0  0
   13.4729    5.9113    0.0000 O   0  0  0  0  0  0  0  0  0  0  0  0
   14.1822    5.4902    0.0000 C   0  0  0  0  0  0  0  0  0  0  0  0
   14.8787    4.2531    0.0000 C   0  0  0  0  0  0  0  0  0  0  0  0
    9.7651   -2.6712    0.0000 C   0  0  0  0  0  0  0  0  0  0  0  0
    9.7771   -1.8468    0.0000 C   0  0  0  0  0  0  0  0  0  0  0  0
    9.0688   -1.4224    0.0000 O   0  0  0  0  0  0  0  0  0  0  0  0
   10.4744   -3.0963    0.0000 C   0  0  0  0  0  0  0  0  0  0  0  0
   11.1919   -2.6948    0.0000 C   0  0  0  0  0  0  0  0  0  0  0  0
   11.8979   -3.1266    0.0000 C   0  0  0  0  0  0  0  0  0  0  0  0
   12.6233   -2.7187    0.0000 C   0  0  0  0  0  0  0  0  0  0  0  0
   12.6350   -1.8943    0.0000 C   0  0  0  0  0  0  0  0  0  0  0  0
   11.9203   -1.4718    0.0000 C   0  0  0  0  0  0  0  0  0  0  0  0
   11.2023   -1.8762    0.0000 C   0  0  0  0  0  0  0  0  0  0  0  0
   13.3541   -1.4921    0.0000 O   0  0  0  0  0  0  0  0  0  0  0  0
   14.0627   -1.9168    0.0000 P   0  0  0  0  0  0  0  0  0  0  0  0
   13.6402   -2.6217    0.0000 O   0  0  0  0  0  0  0  0  0  0  0  0
   10.4991   -1.4477    0.0000 N   0  0  0  0  0  0  0  0  0  0  0  0
    8.3912    0.6527    0.0000 N   0  0  0  0  0  0  0  0  0  0  0  0
   11.2462    0.6024    0.0000 N   0  0  0  0  0  0  0  0  0  0  0  0
   12.7005    2.2234    0.0000 N   0  0  0  0  0  0  0  0  0  0  0  0
   13.4486    4.2771    0.0000 N   0  0  0  0  0  0  0  0  0  0  0  0
   15.6056    4.6555    0.0000 O   0  0  0  0  0  0  0  0  0  0  0  0
   14.9071    5.8971    0.0000 N   0  0  0  0  0  0  0  0  0  0  0  0
    9.0431   -3.0704    0.0000 N   0  0  0  0  0  0  0  0  0  0  0  0
   14.7696   -2.3399    0.0000 O   0  0  0  0  0  0  0  0  0  0  0  0
   14.4897   -1.2037    0.0000 O   0  0  0  0  0  0  0  0  0  0  0  0
    0.7447   -1.6335    0.0000 C   0  0  0  0  0  0  0  0  0  0  0  0
    0.2183   -2.2671    0.0000 C   0  0  0  0  0  0  0  0  0  0  0  0
    0.5045   -3.0402    0.0000 C   0  0  0  0  0  0  0  0  0  0  0  0
    1.3142   -3.1858    0.0000 C   0  0  0  0  0  0  0  0  0  0  0  0
    1.6002   -3.9585    0.0000 C   0  0  0  0  0  0  0  0  0  0  0  0
   -0.0370   -3.6712    0.0000 O   0  0  0  0  0  0  0  0  0  0  0  0
    0.2513   -4.4508    0.0000 C   0  0  0  0  0  0  0  0  0  0  0  0
    1.0625   -4.5938    0.0000 C   0  0  0  0  0  0  0  0  0  0  0  0
    1.3462   -5.3655    0.0000 C   0  0  0  0  0  0  0  0  0  0  0  0
    0.8148   -5.9988    0.0000 C   0  0  0  0  0  0  0  0  0  0  0  0
    0.0032   -5.8528    0.0000 C   0  0  0  0  0  0  0  0  0  0  0  0
   -0.2760   -5.0772    0.0000 C   0  0  0  0  0  0  0  0  0  0  0  0
    0.4634   -0.8608    0.0000 O   0  0  0  0  0  0  0  0  0  0  0  0
    2.6103   -4.3247    0.0000 C   0  0  0  0  0  0  0  0  0  0  0  0
    3.3295   -3.9097    0.0000 C   0  0  0  0  0  0  0  0  0  0  0  0
    4.0353   -5.1506    0.0000 C   0  0  0  0  0  0  0  0  0  0  0  0
    3.3188   -5.5610    0.0000 C   0  0  0  0  0  0  0  0  0  0  0  0
    2.6063   -5.1495    0.0000 C   0  0  0  0  0  0  0  0  0  0  0  0
    4.7499   -5.5648    0.0000 N   0  0  0  0  0  0  0  0  0  0  0  0
    5.4645   -5.9748    0.0000 C   0  0  0  0  0  0  0  0  0  0  0  0
    6.1791   -6.3890    0.0000 S   0  0  0  0  0  0  0  0  0  0  0  0
    3.3295   -3.0829    0.0000 C   0  0  0  0  0  0  0  0  0  0  0  0
    1.8456   -2.5487    0.0000 C   0  0  0  0  0  0  0  0  0  0  0  0
    2.6134   -2.6721    0.0000 O   0  0  0  0  0  0  0  0  0  0  0  0
    1.5651   -1.7791    0.0000 C   0  0  0  0  0  0  0  0  0  0  0  0
    4.0354   -4.3213    0.0000 C   0  0  0  0  0  0  0  0  0  0  0  0
   -0.5314   -6.4846    0.0000 O   0  0  0  0  0  0  0  0  0  0  0  0
    4.0434   -2.6694    0.0000 N   0  0  0  0  0  0  0  0  0  0  0  0
    4.7585   -3.0810    0.0000 C   0  0  0  0  0  0  0  0  0  0  0  0
    5.4724   -2.6675    0.0000 C   0  0  0  0  0  0  0  0  0  0  0  0
    6.1874   -3.0790    0.0000 C   0  0  0  0  0  0  0  0  0  0  0  0
    6.9013   -2.6655    0.0000 C   0  0  0  0  0  0  0  0  0  0  0  0
    7.6164   -3.0770    0.0000 C   0  0  0  0  0  0  0  0  0  0  0  0
    8.3303   -2.6635    0.0000 C   0  0  0  0  0  0  0  0  0  0  0  0
    8.3291   -1.8385    0.0000 O   0  0  0  0  0  0  0  0  0  0  0  0
  3 37  1  0  0  0  0 
 20 41  1  0  0  0  0 
 42 22  1  0  0  0  0 
 38 11  1  0  0  0  0 
 10 38  1  0  0  0  0 
 33 43  1  0  0  0  0 
  6 36  1  0  0  0  0 
 33 44  1  0  0  0  0 
 39 18  1  0  0  0  0 
 13 39  1  0  0  0  0 
  6  7  2  0  0  0  0 
  8 10  1  0  0  0  0 
 10  9  2  0  0  0  0 
 11 13  1  0  0  0  0 
 13 12  2  0  0  0  0 
 11 14  1  1  0  0  0 
 14 15  1  0  0  0  0 
 15 16  1  0  0  0  0 
 15 17  1  0  0  0  0 
 18 20  1  0  0  0  0 
 20 19  2  0  0  0  0 
 18 21  1  6  0  0  0 
 22 23  1  0  0  0  0 
 23 24  2  0  0  0  0 
 22 25  1  6  0  0  0 
 25 26  1  0  0  0  0 
 26 27  2  0  0  0  0 
 27 28  1  0  0  0  0 
 28 29  2  0  0  0  0 
 29 30  1  0  0  0  0 
 30 31  2  0  0  0  0 
 31 26  1  0  0  0  0 
 29 32  1  0  0  0  0 
 32 33  1  0  0  0  0 
 33 34  2  0  0  0  0 
  1  3  1  0  0  0  0 
 45 69  1  0  0  0  0 
 69 67  2  0  0  0  0 
 67 48  1  0  0  0  0 
 47 46  2  0  0  0  0 
 46 45  1  0  0  0  0 
 47 48  1  0  0  0  0 
 47 50  1  0  0  0  0 
 48 49  2  0  0  0  0 
 49 52  1  0  0  0  0 
 51 50  1  0  0  0  0 
 51 52  2  0  0  0  0 
 52 53  1  0  0  0  0 
 53 54  2  0  0  0  0 
 54 55  1  0  0  0  0 
 55 56  2  0  0  0  0 
 56 51  1  0  0  0  0 
 45 57  2  0  0  0  0 
 58 59  2  0  0  0  0 
 59 70  1  0  0  0  0 
 70 60  2  0  0  0  0 
 60 61  1  0  0  0  0 
 61 62  2  0  0  0  0 
 62 58  1  0  0  0  0 
 49 58  1  0  0  0  0 
 60 63  1  0  0  0  0 
 63 64  2  0  0  0  0 
 64 65  2  0  0  0  0 
 59 66  1  0  0  0  0 
 66 68  2  0  0  0  0 
 55 71  1  0  0  0  0 
  3  2  2  0  0  0  0 
 66 72  1  0  0  0  0 
  1  4  1  1  0  0  0 
 72 73  1  0  0  0  0 
  4  5  1  0  0  0  0 
 73 74  1  0  0  0  0 
  5  6  1  0  0  0  0 
 74 75  1  0  0  0  0 
 23 35  1  0  0  0  0 
 75 76  1  0  0  0  0 
 35  1  1  0  0  0  0 
 76 77  1  0  0  0  0 
 21 40  1  0  0  0  0 
 77 78  1  0  0  0  0 
 78 42  1  0  0  0  0 
 37  8  1  0  0  0  0 
 78 79  2  0  0  0  0 
M  END