
  CDK    9/16/09,10:6

 41 42  0  0  0  0  0  0  0  0999 V2000
    5.6638   -4.0629    0.0000 C   0  0  0  0  0  0  0  0  0  0  0  0
    5.6638   -4.8914    0.0000 C   0  0  0  0  0  0  0  0  0  0  0  0
    6.3800   -5.3055    0.0000 C   0  0  0  0  0  0  0  0  0  0  0  0
    7.0962   -4.8914    0.0000 C   0  0  0  0  0  0  0  0  0  0  0  0
    7.0962   -4.0629    0.0000 C   0  0  0  0  0  0  0  0  0  0  0  0
    6.3800   -3.6487    0.0000 C   0  0  0  0  0  0  0  0  0  0  0  0
    6.3789   -2.8250    0.0000 O   0  0  0  0  0  0  0  0  0  0  0  0
    6.3789   -6.1293    0.0000 O   0  0  0  0  0  0  0  0  0  0  0  0
    4.9513   -3.6551    0.0000 C   0  0  0  0  0  0  0  0  0  0  0  0
    4.9493   -2.8314    0.0000 C   0  0  0  0  0  0  0  0  0  0  0  0
    4.2321   -2.4189    0.0000 C   0  0  0  0  0  0  0  0  0  0  0  0
    5.6598   -2.4154    0.0000 C   0  0  0  0  0  0  0  0  0  0  0  0
    5.6578   -1.5917    0.0000 C   0  0  0  0  0  0  0  0  0  0  0  0
    6.3730   -1.1804    0.0000 C   0  0  0  0  0  0  0  0  0  0  0  0
    4.9453   -1.1839    0.0000 O   0  0  0  0  0  0  0  0  0  0  0  0
    4.9433   -0.3601    0.0000 C   0  0  0  0  0  0  0  0  0  0  0  0
    6.3710   -0.3566    0.0000 C   0  0  0  0  0  0  0  0  0  0  0  0
    7.0855   -1.5882    0.0000 O   0  0  0  0  0  0  0  0  0  0  0  0
    7.0815    0.0593    0.0000 C   0  0  0  0  0  0  0  0  0  0  0  0
    5.6538    0.0558    0.0000 C   0  0  0  0  0  0  0  0  0  0  0  0
    7.7987   -0.3532    0.0000 C   0  0  0  0  0  0  0  0  0  0  0  0
    8.5092    0.0628    0.0000 C   0  0  0  0  0  0  0  0  0  0  0  0
    7.8007   -1.1769    0.0000 C   0  0  0  0  0  0  0  0  0  0  0  0
    9.3312    0.0651    0.0000 C   0  0  0  0  0  0  0  0  0  0  0  0
   10.0433   -0.3490    0.0000 C   0  0  0  0  0  0  0  0  0  0  0  0
    9.5432    0.8604    0.0000 O   0  0  0  0  0  0  0  0  0  0  0  0
    8.2949    0.8575    0.0000 O   0  0  0  0  0  0  0  0  0  0  0  0
    7.4992    1.0675    0.0000 C   0  0  0  0  0  0  0  0  0  0  0  0
    7.2802    1.8668    0.0000 O   0  0  0  0  0  0  0  0  0  0  0  0
    6.9176    0.4829    0.0000 N   0  0  0  0  0  0  0  0  0  0  0  0
   10.3431    1.0727    0.0000 C   0  0  0  0  0  0  0  0  0  0  0  0
   10.0412   -1.1728    0.0000 C   0  0  0  0  0  0  0  0  0  0  0  0
    9.3240   -1.5806    0.0000 C   0  0  0  0  0  0  0  0  0  0  0  0
    9.3220   -2.4044    0.0000 C   0  0  0  0  0  0  0  0  0  0  0  0
   10.0370   -2.8203    0.0000 C   0  0  0  0  0  0  0  0  0  0  0  0
    7.8129   -3.6541    0.0000 N   0  0  0  0  0  0  0  0  0  0  0  0
    7.8136   -2.8304    0.0000 C   0  0  0  0  0  0  0  0  0  0  0  0
    7.0979   -2.4154    0.0000 O   0  0  0  0  0  0  0  0  0  0  0  0
    4.9383   -5.3099    0.0000 O   0  0  0  0  0  0  0  0  0  0  0  0
    4.2129   -4.8908    0.0000 C   0  0  0  0  0  0  0  0  0  0  0  0
    7.8885   -1.8011    0.0000 C   0  0  0  0  0  0  0  0  0  0  0  0
  9 10  1  0  0  0  0 
 19 21  2  0  0  0  0 
  3  4  1  0  0  0  0 
 21 22  1  0  0  0  0 
 10 11  1  1  0  0  0 
 21 23  1  0  0  0  0 
  4  5  2  0  0  0  0 
 22 24  1  0  0  0  0 
 10 12  1  0  0  0  0 
 24 25  1  0  0  0  0 
  5  6  1  0  0  0  0 
 24 26  1  1  0  0  0 
 12 13  1  0  0  0  0 
 22 27  1  6  0  0  0 
 27 28  1  0  0  0  0 
 13 14  1  0  0  0  0 
 28 29  2  0  0  0  0 
  6  7  2  0  0  0  0 
 28 30  1  0  0  0  0 
 13 15  1  6  0  0  0 
 26 31  1  0  0  0  0 
  1  2  2  0  0  0  0 
 25 32  2  0  0  0  0 
 15 16  1  0  0  0  0 
 32 33  1  0  0  0  0 
  3  8  2  0  0  0  0 
 33 34  2  0  0  0  0 
 14 17  1  0  0  0  0 
 34 35  1  0  0  0  0 
  1  6  1  0  0  0  0 
  5 36  1  0  0  0  0 
 14 18  1  1  0  0  0 
 36 37  1  0  0  0  0 
  1  9  1  0  0  0  0 
 37 38  2  0  0  0  0 
 37 34  1  0  0  0  0 
 17 19  1  0  0  0  0 
  2 39  1  0  0  0  0 
  2  3  1  0  0  0  0 
 39 40  1  0  0  0  0 
 17 20  1  1  0  0  0 
 18 41  1  0  0  0  0 
M  END