
          11280715012D 1   1.00000     0.00000     0

 39 42  0     0  0            999 V2000
    5.3542   -5.7667    0.0000 N   0  0  0  0  0  0           0  0  0
    4.8667   -6.1292    0.0000 C   0  0  0  0  0  0           0  0  0
    5.8417   -6.1292    0.0000 C   0  0  0  0  0  0           0  0  0
    6.9667   -5.2292    0.0000 C   0  0  0  0  0  0           0  0  0
    6.9667   -5.8292    0.0000 C   0  0  0  0  0  0           0  0  0
    6.4417   -6.1292    0.0000 C   0  0  0  0  0  0           0  0  0
    5.6542   -6.6917    0.0000 O   0  0  0  0  0  0           0  0  0
    5.0542   -6.6917    0.0000 C   0  0  0  0  0  0           0  0  0
    4.2667   -6.1167    0.0000 C   0  0  0  0  0  0           0  0  0
   10.0792   -5.2250    0.0000 C   0  0  0  0  0  0           0  0  0
    6.4417   -4.9292    0.0000 C   0  0  0  0  0  0           0  0  0
    7.4792   -4.9292    0.0000 C   0  0  0  0  0  0           0  0  0
    3.9667   -5.6042    0.0000 O   0  0  0  0  0  0           0  0  0
    5.9167   -4.0292    0.0000 N   0  0  0  0  0  0           0  0  0
   10.0792   -5.8250    0.0000 O   0  0  0  0  0  0           0  0  0
    3.9667   -6.6375    0.0000 N   0  0  0  0  0  0           0  0  0
   10.5917   -4.9250    0.0000 O   0  0  0  0  0  0           0  0  0
    7.4792   -6.1292    0.0000 C   0  0  0  0  0  0           0  0  0
    6.4417   -4.3292    0.0000 C   0  0  0  0  0  0           0  0  0
    6.4417   -6.7292    0.0000 C   0  0  0  0  0  0           0  0  0
    9.5542   -4.9250    0.0000 C   0  0  0  0  0  0           0  0  0
    5.4042   -4.3292    0.0000 C   0  0  0  0  0  0           0  0  0
    1.5667   -5.5917    0.0000 C   0  0  3  0  0  0           0  0  0
    8.0042   -5.2292    0.0000 C   0  0  0  0  0  0           0  0  0
    5.9167   -5.2292    0.0000 C   0  0  0  0  0  0           0  0  0
    3.3667   -6.6375    0.0000 C   0  0  0  0  0  0           0  0  0
    2.1667   -5.5917    0.0000 C   0  0  0  0  0  0           0  0  0
    1.2792   -5.0667    0.0000 C   0  0  0  0  0  0           0  0  0
    1.2667   -6.1042    0.0000 C   0  0  0  0  0  0           0  0  0
    9.0292   -5.2167    0.0000 C   0  0  0  0  0  0           0  0  0
    8.5167   -4.9167    0.0000 C   0  0  0  0  0  0           0  0  0
    3.0667   -6.1167    0.0000 C   0  0  0  0  0  0           0  0  0
    2.4667   -6.1167    0.0000 C   0  0  0  0  0  0           0  0  0
    5.4042   -4.9292    0.0000 C   0  0  0  0  0  0           0  0  0
    7.4917   -6.7250    0.0000 C   0  0  0  0  0  0           0  0  0
    6.9667   -7.0292    0.0000 C   0  0  0  0  0  0           0  0  0
    0.6667   -6.1042    0.0000 C   0  0  0  0  0  0           0  0  0
    0.6792   -5.0625    0.0000 C   0  0  0  0  0  0           0  0  0
    0.3792   -5.5792    0.0000 C   0  0  0  0  0  0           0  0  0
  2  1  1  0     0  0
  3  1  2  0     0  0
  4  5  1  0     0  0
  5  6  2  0     0  0
  6  3  1  0     0  0
  7  3  1  0     0  0
  8  2  2  0     0  0
  9  2  1  0     0  0
 10 21  1  0     0  0
 11  4  1  0     0  0
 12  4  2  0     0  0
 13  9  2  0     0  0
 14 19  2  0     0  0
 15 10  2  0     0  0
 16  9  1  0     0  0
 17 10  1  0     0  0
 18  5  1  0     0  0
 19 11  1  0     0  0
 20  6  1  0     0  0
 21 30  1  0     0  0
 22 34  2  0     0  0
 23 27  1  0     0  0
 24 12  1  0     0  0
 25 11  2  0     0  0
 26 16  1  0     0  0
 27 33  1  0     0  0
 28 23  1  0     0  0
 29 23  1  0     0  0
 30 31  1  0     0  0
 31 24  1  0     0  0
 32 26  1  0     0  0
 33 32  1  0     0  0
 34 25  1  0     0  0
 35 36  1  0     0  0
 36 20  2  0     0  0
 37 29  1  0     0  0
 38 28  1  0     0  0
 39 37  1  0     0  0
  8  7  1  0     0  0
 35 18  2  0     0  0
 14 22  1  0     0  0
 38 39  1  0     0  0
M  END