
  SciTegic09261414532D

 44 50  0  0  0  0            999 V2000
    1.2615   -6.8099    0.0000 C   0  0
    1.2604   -7.6294    0.0000 C   0  0
    1.9684   -8.0384    0.0000 C   0  0
    1.9666   -6.4010    0.0000 C   0  0
    2.6752   -6.8063    0.0000 C   0  0
    2.6755   -7.6295    0.0000 C   0  0
    3.4585   -7.8836    0.0000 N   0  0
    3.9422   -7.2175    0.0000 C   0  0
    3.4581   -6.5517    0.0000 N   0  0
    3.7112   -8.6608    0.0000 C   0  0
    4.7561   -7.2158    0.0000 C   0  0
    5.1644   -7.9250    0.0000 C   0  0
    5.9808   -7.9250    0.0000 C   0  0
    6.3900   -7.2167    0.0000 C   0  0
    5.9767   -6.5068    0.0000 C   0  0
    5.1617   -6.5102    0.0000 C   0  0
    7.2072   -7.2153    0.0000 O   0  0
    7.6169   -7.9223    0.0000 C   0  0
    8.4341   -7.9209    0.0000 C   0  0
    8.8439   -8.6280    0.0000 N   0  0
    8.5127   -9.3700    0.0000 C   0  0
    9.1205   -9.9165    0.0000 N   0  0
    9.6562   -8.7077    0.0000 C   0  0
    9.8237   -9.5039    0.0000 C   0  0
   10.5957   -9.7554    0.0000 C   0  0
   11.2007   -9.2117    0.0000 C   0  0
   11.0286   -8.4132    0.0000 C   0  0
   10.2569   -8.1654    0.0000 C   0  0
    7.8064   -9.7772    0.0000 C   0  0
    7.0998   -9.3645    0.0000 C   0  0
    6.3912   -9.7700    0.0000 C   0  0
    6.3880  -10.5881    0.0000 C   0  0
    7.0993  -10.9989    0.0000 C   0  0
    7.8050  -10.5910    0.0000 C   0  0
    3.1646   -9.2682    0.0000 C   0  0
    2.3670   -9.0971    0.0000 C   0  0
    1.8206   -9.7038    0.0000 C   0  0
    2.0732  -10.4819    0.0000 C   0  0
    2.8773  -10.6499    0.0000 C   0  0
    3.4202  -10.0419    0.0000 C   0  0
    8.8415   -7.2126    0.0000 C   0  0
    8.4318   -6.5055    0.0000 C   0  0
    8.8368   -5.7963    0.0000 O   0  0
    7.6122   -6.5061    0.0000 O   0  0
  1  2  2  0
  2  3  1  0
  3  6  2  0
  5  4  2  0
  4  1  1  0
  5  6  1  0
  6  7  1  0
  7  8  1  0
  8  9  2  0
  9  5  1  0
  7 10  1  0
 11 12  2  0
 12 13  1  0
 13 14  2  0
 14 15  1  0
 15 16  2  0
 16 11  1  0
  8 11  1  0
 14 17  1  0
 17 18  1  0
 18 19  1  0
 19 20  1  0
 20 21  1  0
 21 22  2  0
 22 24  1  0
 23 20  1  0
 23 24  2  0
 24 25  1  0
 25 26  2  0
 26 27  1  0
 27 28  2  0
 28 23  1  0
 29 30  2  0
 30 31  1  0
 31 32  2  0
 32 33  1  0
 33 34  2  0
 34 29  1  0
 21 29  1  0
 10 35  1  0
 35 36  2  0
 36 37  1  0
 37 38  2  0
 38 39  1  0
 39 40  2  0
 40 35  1  0
 19 41  1  0
 41 42  1  0
 42 43  1  0
 42 44  2  0
M  END