
          02060813482D 1   1.00000     0.00000     0

 47 50  0     1  0            999 V2000
   14.8962   -0.1466    0.0000 N   0  0  0  0  0  0           0  0  0
   15.6107    0.2659    0.0000 C   0  0  2  0  0  0           0  0  0
   16.3251   -0.1466    0.0000 C   0  0  0  0  0  0           0  0  0
   15.6107    1.0909    0.0000 C   0  0  0  0  0  0           0  0  0
   14.8962    1.5034    0.0000 C   0  0  0  0  0  0           0  0  0
   14.8989    2.3294    0.0000 C   0  0  0  0  0  0           0  0  0
   14.1853    2.7419    0.0000 C   0  0  0  0  0  0           0  0  0
   13.4698    2.3293    0.0000 C   0  0  0  0  0  0           0  0  0
   13.4724    1.5000    0.0000 C   0  0  0  0  0  0           0  0  0
   14.1867    1.0913    0.0000 C   0  0  0  0  0  0           0  0  0
   14.1893    0.2663    0.0000 C   0  0  0  0  0  0           0  0  0
   15.6142    2.7406    0.0000 C   0  0  0  0  0  0           0  0  0
   12.7548    2.7409    0.0000 O   0  0  0  0  0  0           0  0  0
   16.3251   -0.9717    0.0000 O   0  0  0  0  0  0           0  0  0
   17.0396    0.2659    0.0000 N   0  0  3  0  0  0           0  0  0
   17.7485   -0.1492    0.0000 C   0  0  1  0  0  0           0  0  0
   18.4608    0.2598    0.0000 C   0  0  0  0  0  0           0  0  0
   17.0322    1.0892    0.0000 C   0  0  0  0  0  0           0  0  0
   17.7508    1.4999    0.0000 C   0  0  0  0  0  0           0  0  0
   18.4621    1.0856    0.0000 C   0  0  0  0  0  0           0  0  0
   19.1744    1.4944    0.0000 C   0  0  0  0  0  0           0  0  0
   19.1767    2.3173    0.0000 C   0  0  0  0  0  0           0  0  0
   18.4607    2.7298    0.0000 C   0  0  0  0  0  0           0  0  0
   17.7512    2.3186    0.0000 C   0  0  0  0  0  0           0  0  0
   17.7450   -0.9742    0.0000 C   0  0  0  0  0  0           0  0  0
   17.0288   -1.3836    0.0000 O   0  0  0  0  0  0           0  0  0
   18.4577   -1.3897    0.0000 N   0  0  0  0  0  0           0  0  0
   17.7425    0.6784    0.0000 H   0  0  0  0  0  0           0  0  0
   19.1740   -0.9802    0.0000 C   0  0  0  0  0  0           0  0  0
   19.8867   -1.3957    0.0000 C   0  0  0  0  0  0           0  0  0
   20.6029   -0.9862    0.0000 C   0  0  0  0  0  0           0  0  0
   21.3157   -1.4018    0.0000 C   0  0  0  0  0  0           0  0  0
   22.0319   -0.9922    0.0000 C   0  0  1  0  0  0           0  0  0
   22.7447   -1.4077    0.0000 C   0  0  0  0  0  0           0  0  0
   22.0354   -0.1672    0.0000 N   0  0  0  0  0  0           0  0  0
   22.7411   -2.2327    0.0000 O   0  0  0  0  0  0           0  0  0
   23.4609   -0.9983    0.0000 N   0  0  0  0  0  0           0  0  0
   22.7516    0.2422    0.0000 C   0  0  0  0  0  0           0  0  0
   24.1736   -1.4138    0.0000 C   0  0  0  0  0  0           0  0  0
   24.8898   -1.0043    0.0000 C   0  0  0  0  0  0           0  0  0
   25.6009   -1.4239    0.0000 C   0  0  0  0  0  0           0  0  0
   26.3166   -1.0151    0.0000 C   0  0  0  0  0  0           0  0  0
   26.3205   -0.1892    0.0000 C   0  0  0  0  0  0           0  0  0
   25.6027    0.2262    0.0000 C   0  0  0  0  0  0           0  0  0
   24.8900   -0.1850    0.0000 C   0  0  0  0  0  0           0  0  0
   23.4644   -0.1733    0.0000 O   0  0  0  0  0  0           0  0  0
   22.7551    1.0672    0.0000 C   0  0  0  0  0  0           0  0  0
 22 23  1  0     0  0
  5  6  2  0     0  0
 23 24  2  0     0  0
 24 19  1  0     0  0
  6 12  1  0     0  0
 16 25  1  0     0  0
  1  2  1  0     0  0
 25 26  2  0     0  0
  8 13  1  0     0  0
 25 27  1  0     0  0
  6  7  1  0     0  0
 16 28  1  6     0  0
  3 14  2  0     0  0
 27 29  1  0     0  0
  2  4  1  1     0  0
 29 30  1  0     0  0
  3 15  1  0     0  0
 30 31  1  0     0  0
 15 16  1  0     0  0
 31 32  1  0     0  0
  7  8  2  0     0  0
 32 33  1  0     0  0
 33 34  1  0     0  0
  8  9  1  0     0  0
 33 35  1  6     0  0
 15 18  1  0     0  0
 34 36  2  0     0  0
 16 17  1  0     0  0
 34 37  1  0     0  0
 17 20  1  0     0  0
 35 38  1  0     0  0
 19 18  1  0     0  0
 37 39  1  0     0  0
  4  5  1  0     0  0
 39 40  1  0     0  0
  9 10  2  0     0  0
 40 41  2  0     0  0
 19 20  2  0     0  0
 41 42  1  0     0  0
 10  5  1  0     0  0
 42 43  2  0     0  0
 20 21  1  0     0  0
 43 44  1  0     0  0
  2  3  1  0     0  0
 44 45  2  0     0  0
 45 40  1  0     0  0
 21 22  2  0     0  0
 38 46  2  0     0  0
 10 11  1  0     0  0
 38 47  1  0     0  0
M  END