
  SciTegic04091415222D

 29 32  0  0  0  0            999 V2000
   26.9117   -3.4879    0.0000 S   0  0
   26.5054   -4.1969    0.0000 O   0  0
   27.3226   -4.1943    0.0000 O   0  0
   19.8423   -3.5040    0.0000 C   0  0
   21.2560   -3.5004    0.0000 C   0  0
   20.5474   -3.0951    0.0000 C   0  0
   21.2589   -4.3230    0.0000 C   0  0
   21.2550   -5.9581    0.0000 C   0  0
   21.9662   -5.5459    0.0000 C   0  0
   21.9643   -4.7302    0.0000 C   0  0
   20.5484   -4.7303    0.0000 C   0  0
   19.8412   -4.3235    0.0000 C   0  0
   19.1373   -4.7325    0.0000 C   0  0
   19.1396   -5.5481    0.0000 O   0  0
   19.8514   -5.9531    0.0000 C   0  0
   20.5523   -5.5417    0.0000 C   0  0
   21.9592   -3.0904    0.0000 C   0  0
   22.6687   -3.4980    0.0000 N   0  0
   23.3744   -3.0875    0.0000 C   0  0
   23.3717   -2.2694    0.0000 N   0  0
   22.6575   -1.8637    0.0000 C   0  0
   21.9548   -2.2766    0.0000 N   0  0
   20.5450   -2.2779    0.0000 Cl  0  0
   22.6516   -1.0465    0.0000 N   0  0
   24.0834   -3.4937    0.0000 S   0  0
   24.7898   -3.0828    0.0000 C   0  0
   25.4988   -3.4891    0.0000 C   0  0
   26.2052   -3.0782    0.0000 N   0  0
   27.6206   -3.0735    0.0000 C   0  0
  2  1  2  0
  1  3  2  0
  4 12  2  0
  7  5  1  0
  5  6  2  0
  6  4  1  0
  7 11  1  0
 16  8  1  0
  8  9  2  0
  9 10  1  0
 10  7  2  0
 11 12  1  0
 12 13  1  0
 13 14  1  0
 14 15  1  0
 15 16  1  0
 16 11  2  0
 17 18  2  0
 18 19  1  0
 19 20  2  0
 20 21  1  0
 21 22  2  0
 22 17  1  0
  5 17  1  0
  6 23  1  0
 21 24  1  0
 19 25  1  0
 25 26  1  0
 26 27  1  0
 27 28  1  0
 28  1  1  0
  1 29  1  0
M  END