
  CDK    9/16/09,9:58

 20 23  0  0  0  0  0  0  0  0999 V2000
    3.5637  -10.1369    0.0000 C   0  0  0  0  0  0  0  0  0  0  0  0
    3.5625  -10.9644    0.0000 C   0  0  0  0  0  0  0  0  0  0  0  0
    4.2753  -11.3773    0.0000 C   0  0  0  0  0  0  0  0  0  0  0  0
    4.2734   -9.7242    0.0000 C   0  0  0  0  0  0  0  0  0  0  0  0
    4.9915  -10.1329    0.0000 C   0  0  0  0  0  0  0  0  0  0  0  0
    4.9920  -10.9598    0.0000 C   0  0  0  0  0  0  0  0  0  0  0  0
    5.7786  -11.2149    0.0000 N   0  0  0  0  0  0  0  0  0  0  0  0
    6.2643  -10.5455    0.0000 C   0  0  0  0  0  0  0  0  0  0  0  0
    5.7777   -9.8770    0.0000 N   0  0  0  0  0  0  0  0  0  0  0  0
    7.0892  -10.5450    0.0000 N   0  0  0  0  0  0  0  0  0  0  0  0
    7.5720  -11.2084    0.0000 C   0  0  0  0  0  0  0  0  0  0  0  0
    8.3564  -10.9530    0.0000 C   0  0  0  0  0  0  0  0  0  0  0  0
    8.3558  -10.1280    0.0000 C   0  0  0  0  0  0  0  0  0  0  0  0
    7.5711   -9.8738    0.0000 C   0  0  0  0  0  0  0  0  0  0  0  0
    7.3178  -11.9925    0.0000 C   0  0  0  0  0  0  0  0  0  0  0  0
    6.5097  -12.1635    0.0000 C   0  0  0  0  0  0  0  0  0  0  0  0
    6.2553  -12.9474    0.0000 C   0  0  0  0  0  0  0  0  0  0  0  0
    6.8080  -13.5609    0.0000 C   0  0  0  0  0  0  0  0  0  0  0  0
    7.6184  -13.3853    0.0000 C   0  0  0  0  0  0  0  0  0  0  0  0
    7.8689  -12.6017    0.0000 C   0  0  0  0  0  0  0  0  0  0  0  0
  4  1  1  0  0  0  0 
  8 10  1  0  0  0  0 
 10 11  1  0  0  0  0 
  5  6  1  0  0  0  0 
  2  3  1  0  0  0  0 
  3  6  2  0  0  0  0 
 11 12  1  0  0  0  0 
 12 13  1  0  0  0  0 
 13 14  1  0  0  0  0 
 14 10  1  0  0  0  0 
  1  2  2  0  0  0  0 
  5  4  2  0  0  0  0 
 15 16  2  0  0  0  0 
  6  7  1  0  0  0  0 
 16 17  1  0  0  0  0 
  7  8  1  0  0  0  0 
 17 18  2  0  0  0  0 
  8  9  2  0  0  0  0 
 18 19  1  0  0  0  0 
  9  5  1  0  0  0  0 
 19 20  2  0  0  0  0 
 20 15  1  0  0  0  0 
 11 15  1  0  0  0  0 
M  END