
  SciTegic08041117222D

 19 21  0  0  0  0            999 V2000
    4.5439   -4.3040    0.0000 N   0  0
    4.5429   -5.1312    0.0000 C   0  0
    5.2572   -5.5440    0.0000 C   0  0
    5.9729   -5.1307    0.0000 C   0  0
    5.9703   -4.3006    0.0000 N   0  0
    5.2555   -3.8912    0.0000 C   0  0
    5.2531   -3.0662    0.0000 N   0  0
    3.8280   -5.5430    0.0000 N   0  0
    3.0726   -5.2079    0.0000 C   0  0
    2.5201   -5.8205    0.0000 C   0  0
    2.9320   -6.5354    0.0000 C   0  0
    3.7390   -6.3645    0.0000 C   0  0
    6.6881   -5.5421    0.0000 N   0  0
    6.7761   -6.3593    0.0000 C   0  0
    7.5833   -6.5296    0.0000 C   0  0  1  0  0  0
    7.9947   -5.8144    0.0000 C   0  0
    7.4416   -5.2022    0.0000 C   0  0
    7.9201   -7.2827    0.0000 N   0  0
    7.4362   -7.9509    0.0000 C   0  0
  4  5  1  0
  2  3  1  0
  5  6  2  0
  9 10  1  0
 10 11  1  0
 11 12  1  0
 12  8  1  0
  6  1  1  0
  4 13  1  0
 13 14  1  0
  1  2  2  0
  6  7  1  0
  3  4  2  0
  2  8  1  0
 14 15  1  0
 15 16  1  0
 16 17  1  0
 17 13  1  0
  8  9  1  0
 15 18  1  1
 18 19  1  0
M  END