
  SciTegic11201309402D

 61 64  0  0  0  0            999 V2000
    2.8707   -5.7581    0.0000 N   0  0
    3.4199   -6.3697    0.0000 C   0  0
    3.1453   -4.3352    0.0000 C   0  0
    4.2354   -6.3572    0.0000 C   0  0  1  0  0  0
    2.6253   -4.9801    0.0000 C   0  0  2  0  0  0
    6.8315   -2.9498    0.0000 C   0  0
    4.6680   -2.7251    0.0000 C   0  0
    3.8817   -3.8318    0.0000 N   0  0
    5.4086   -3.0746    0.0000 N   0  0
    7.5055   -2.4755    0.0000 N   0  0
   10.3762   -2.3507    0.0000 C   0  0
    6.0826   -2.6003    0.0000 C   0  0  1  0  0  0
    9.6648   -2.7709    0.0000 C   0  0
    6.1700   -7.2434    0.0000 N   0  0
    3.8817   -3.0080    0.0000 C   0  0  1  0  0  0
    7.8550   -0.5783    0.0000 N   0  0
   11.0877   -2.7584    0.0000 N   0  0
    4.5307   -5.5334    0.0000 N   0  0
   12.3358   -3.4740    0.0000 C   0  0
   11.9197   -2.7501    0.0000 C   0  0  2  0  0  0
    5.5085   -6.7566    0.0000 C   0  0
    8.2419   -2.8458    0.0000 C   0  0  2  0  0  0
    4.7304   -7.0063    0.0000 C   0  0
    6.6651   -1.1899    0.0000 C   0  0
    6.0826   -1.7766    0.0000 C   0  0
    6.5320   -0.3786    0.0000 N   0  0
    6.5944   -5.9828    0.0000 N   0  0
    6.8440   -6.7441    0.0000 C   0  0
    7.2684    0.0000    0.0000 C   0  0
    5.2838   -5.0966    0.0000 C   0  0
    8.9284   -2.3964    0.0000 C   0  0  1  0  0  0
    7.4805   -1.3147    0.0000 C   0  0
    3.1620   -7.1394    0.0000 O   0  0
    2.7085   -3.6113    0.0000 O   0  0
    5.7664   -5.9828    0.0000 C   0  0
    4.6722   -1.9763    0.0000 O   0  0
    6.9064   -3.7694    0.0000 O   0  0
    3.2494   -2.4630    0.0000 C   0  0
   10.3637   -1.5269    0.0000 O   0  0
   13.1554   -3.4740    0.0000 O   0  0
    8.2794   -3.6695    0.0000 C   0  0
    5.1673   -4.2312    0.0000 O   0  0
   11.9239   -4.1855    0.0000 N   0  0
    2.1884   -6.2199    0.0000 C   0  0
   12.3316   -2.0345    0.0000 C   0  0  2  0  0  0
    3.3991   -1.6517    0.0000 C   0  0
    8.8867   -1.5768    0.0000 O   0  0
    1.8015   -4.9551    0.0000 C   0  0
    1.5394   -5.7082    0.0000 C   0  0
    9.0158   -4.0440    0.0000 C   0  0
    6.1201   -5.3213    0.0000 C   0  0
   11.9114   -1.3230    0.0000 C   0  0
   13.1554   -2.0345    0.0000 C   0  0
    2.7751   -1.1275    0.0000 C   0  0
    4.1730   -1.3896    0.0000 C   0  0
    9.7105   -3.5946    0.0000 C   0  0
    9.0615   -4.8677    0.0000 C   0  0
   12.2484   -0.5741    0.0000 C   0  0
    4.3310   -0.5783    0.0000 C   0  0
    2.9248   -0.3162    0.0000 C   0  0
    3.6987   -0.0416    0.0000 C   0  0
  2  1  1  0
  5  3  1  1
  4  2  1  0
  5  1  1  0
  6 12  1  0
  7 15  1  0
  8  3  1  0
  9  7  1  0
 10  6  1  0
 11 13  1  0
 12  9  1  1
 13 31  1  0
 14 21  1  0
 15  8  1  1
 16 32  1  0
 17 11  1  0
  4 18  1  1
 19 20  1  0
 20 17  1  1
 21 23  1  0
 22 10  1  6
 23  4  1  0
 24 25  1  0
 12 25  1  0
 26 24  1  0
 27 35  1  0
 28 14  2  0
 29 26  2  0
 30 18  1  0
 31 22  1  0
 32 24  2  0
 33  2  2  0
 34  3  2  0
 35 21  2  0
 36  7  2  0
 37  6  2  0
 15 38  1  0
 39 11  2  0
 40 19  2  0
 22 41  1  0
 42 30  2  0
 43 19  1  0
 44  1  1  0
 20 45  1  0
 46 38  1  0
 31 47  1  1
 48  5  1  0
 49 44  1  0
 50 41  1  0
 51 30  1  0
 52 45  1  0
 45 53  1  6
 54 46  1  0
 55 46  2  0
 56 50  1  0
 57 50  1  0
 58 52  1  0
 59 55  1  0
 60 54  2  0
 61 59  2  0
 48 49  1  0
 28 27  1  0
 60 61  1  0
 16 29  1  0
M  END