
  SciTegic12231509382D

 42 46  0  0  0  0            999 V2000
    5.2014   -6.6486    0.0000 C   0  0
    4.9927   -7.4467    0.0000 C   0  0
    4.1700   -7.4803    0.0000 N   0  0
    3.8868   -6.7095    0.0000 C   0  0
    4.5163   -6.2004    0.0000 N   0  0
    3.0941   -6.4801    0.0000 O   0  0
    4.5163   -5.3776    0.0000 C   0  0
    3.7877   -5.0193    0.0000 C   0  0
    3.0771   -5.4312    0.0000 C   0  0
    2.3623   -5.0193    0.0000 N   0  0
    2.3608   -4.1935    0.0000 C   0  0
    1.6516   -3.7833    0.0000 C   0  0
    0.9391   -4.1893    0.0000 N   0  0
    0.9367   -5.0158    0.0000 C   0  0
    1.6486   -5.4330    0.0000 C   0  0
    0.2244   -3.7775    0.0000 C   0  0
    0.2335   -2.9559    0.0000 C   0  0
   -0.4801   -2.5390    0.0000 C   0  0
   -1.1935   -2.9525    0.0000 C   0  0
   -1.1922   -3.7781    0.0000 C   0  0
   -0.4796   -4.1868    0.0000 C   0  0
    3.7401   -4.1723    0.0000 O   0  0
    5.6133   -5.9338    0.0000 C   0  0
    6.4338   -5.8944    0.0000 C   0  0
    6.8196   -5.1558    0.0000 C   0  0
    6.3766   -4.4540    0.0000 C   0  0
    5.5374   -4.4899    0.0000 C   0  0
    5.1573   -5.2289    0.0000 C   0  0
    5.9840   -6.9603    0.0000 C   0  0
    6.0988   -7.7814    0.0000 C   0  0
    6.8660   -8.0863    0.0000 C   0  0
    7.5174   -7.5715    0.0000 C   0  0
    7.3935   -6.7511    0.0000 C   0  0
    6.6264   -6.4521    0.0000 C   0  0
    5.5036   -8.0979    0.0000 O   0  0
    3.7142   -8.1688    0.0000 C   0  0
    2.8931   -8.1126    0.0000 C   0  0
    2.4331   -8.8011    0.0000 O   0  0
    2.5278   -7.3762    0.0000 O   0  0
    1.6120   -8.7449    0.0000 C   0  0
    0.9482   -2.5440    0.0000 O   0  0
    1.6614   -2.9574    0.0000 C   0  0
  9 10  1  0
 20 21  2  0
 21 16  1  0
 10 11  1  0
  8 22  1  0
  5  1  1  0
  1 23  1  0
  1  2  1  0
 23 24  2  0
  4  6  2  0
 24 25  1  0
 25 26  2  0
  5  7  1  0
 26 27  1  0
 10 15  1  0
 27 28  2  0
 28 23  1  0
 11 12  1  0
  1 29  1  0
 12 13  1  0
 29 30  2  0
 13 14  1  0
 30 31  1  0
 14 15  1  0
 31 32  2  0
  2  3  1  0
 32 33  1  0
 13 16  1  0
 33 34  2  0
 34 29  1  0
  7  8  1  0
  2 35  2  0
 16 17  2  0
  3 36  1  0
  3  4  1  0
 36 37  1  0
 17 18  1  0
 37 38  1  0
  8  9  1  0
 37 39  2  0
 18 19  2  0
 38 40  1  0
  4  5  1  0
 17 41  1  0
 19 20  1  0
 41 42  1  0
M  END