
  SciTegic12171313022D

 33 36  0  0  0  0            999 V2000
   40.2250  -12.7275    0.0000 C   0  0
   40.2239  -13.5549    0.0000 C   0  0
   40.9387  -13.9677    0.0000 C   0  0
   41.6551  -13.5544    0.0000 C   0  0
   41.6523  -12.7239    0.0000 C   0  0
   40.9369  -12.3147    0.0000 C   0  0
   39.5091  -13.9668    0.0000 N   0  0
   39.5084  -14.7918    0.0000 C   0  0
   38.7936  -15.2037    0.0000 N   0  0
   40.2226  -15.2049    0.0000 O   0  0
   38.7930  -16.0287    0.0000 C   0  0
   38.1295  -16.5116    0.0000 N   0  0
   38.3839  -17.2964    0.0000 N   0  0
   39.2089  -17.2971    0.0000 C   0  0
   39.4644  -16.5126    0.0000 C   0  0
   39.6934  -17.9648    0.0000 C   0  0
   39.3573  -18.7183    0.0000 C   0  0
   40.5139  -17.8792    0.0000 C   0  0
   40.1015  -18.6734    0.0000 C   0  0
   37.3337  -16.2943    0.0000 C   0  0
   37.1289  -15.4983    0.0000 C   0  0
   36.3338  -15.2810    0.0000 C   0  0
   35.7469  -15.8621    0.0000 C   0  0
   35.9605  -16.6634    0.0000 C   0  0
   36.7552  -16.8768    0.0000 C   0  0
   34.9507  -15.6460    0.0000 C   0  0
   42.3621  -12.3100    0.0000 C   0  0
   43.0784  -12.7215    0.0000 C   0  0
   43.7909  -12.3070    0.0000 N   0  0
   43.7882  -11.4811    0.0000 C   0  0
   43.0672  -11.0715    0.0000 C   0  0
   42.3577  -11.4884    0.0000 C   0  0
   44.5006  -11.0650    0.0000 N   0  0
  1  2  2  0
  2  3  1  0
  3  4  2  0
  4  5  1  0
  5  6  2  0
  6  1  1  0
  2  7  1  0
  7  8  1  0
  8  9  1  0
  8 10  2  0
  9 11  1  0
 11 12  1  0
 12 13  1  0
 13 14  2  0
 14 15  1  0
 15 11  2  0
 14 16  1  0
 16 17  1  0
 16 18  1  0
 16 19  1  0
 12 20  1  0
 20 21  2  0
 21 22  1  0
 22 23  2  0
 23 24  1  0
 24 25  2  0
 25 20  1  0
 23 26  1  0
 27 28  2  0
 28 29  1  0
 29 30  2  0
 30 31  1  0
 31 32  2  0
 32 27  1  0
  5 27  1  0
 30 33  1  0
M  END