
          11280715202D 1   1.00000     0.00000     0

 30 30  0     0  0            999 V2000
   -0.3750   -2.2667    0.0000 N   0  0  0  0  0  0           0  0  0
    6.8375   -2.8917    0.0000 N   0  0  0  0  0  0           0  0  0
    8.2375   -3.1875    0.0000 C   0  0  0  0  0  0           0  0  0
    7.6167   -2.6292    0.0000 N   0  0  0  0  0  0           0  0  0
   -0.7875   -3.5417    0.0000 N   0  0  0  0  0  0           0  0  0
   -1.0458   -2.7542    0.0000 C   0  0  0  0  0  0           0  0  0
    0.2917   -2.7542    0.0000 C   0  0  0  0  0  0           0  0  0
   11.6792   -3.6917    0.0000 C   0  0  0  0  0  0           0  0  0
   11.6917   -2.0417    0.0000 C   0  0  0  0  0  0           0  0  0
   10.9750   -3.2792    0.0000 C   0  0  0  0  0  0           0  0  0
   10.9792   -2.4542    0.0000 C   0  0  0  0  0  0           0  0  0
    6.2250   -2.3375    0.0000 C   0  0  0  0  0  0           0  0  0
    5.4417   -2.5917    0.0000 C   0  0  0  0  0  0           0  0  0
    0.0375   -3.5417    0.0000 C   0  0  0  0  0  0           0  0  0
    8.0625   -3.9917    0.0000 O   0  0  0  0  0  0           0  0  0
   11.6792   -4.5167    0.0000 O   0  0  0  0  0  0           0  0  0
   11.6917   -1.2167    0.0000 O   0  0  0  0  0  0           0  0  0
    4.8167   -2.0375    0.0000 C   0  0  0  0  0  0           0  0  0
    5.2667   -3.4000    0.0000 C   0  0  0  0  0  0           0  0  0
    9.0167   -2.9292    0.0000 N   0  0  0  0  0  0           0  0  0
    3.8667   -3.1000    0.0000 C   0  0  0  0  0  0           0  0  0
   12.4000   -3.2792    0.0000 O   0  0  0  0  0  0           0  0  0
   12.4042   -2.4542    0.0000 O   0  0  0  0  0  0           0  0  0
    4.4792   -3.6542    0.0000 C   0  0  0  0  0  0           0  0  0
    4.0417   -2.2917    0.0000 C   0  0  0  0  0  0           0  0  0
    3.0875   -3.3542    0.0000 O   0  0  0  0  0  0           0  0  0
    1.0792   -2.5000    0.0000 C   0  0  0  0  0  0           0  0  0
    6.3917   -1.5292    0.0000 C   0  0  0  0  0  0           0  0  0
    2.4750   -2.8000    0.0000 C   0  0  0  0  0  0           0  0  0
    1.6875   -3.0542    0.0000 C   0  0  0  0  0  0           0  0  0
  2 12  2  0     0  0
  3  4  1  0     0  0
  4  2  1  0     0  0
  5  6  1  0     0  0
  6  1  2  0     0  0
  7  1  1  0     0  0
  9 11  1  0     0  0
 10  8  1  0     0  0
 11 10  2  0     0  0
 12 13  1  0     0  0
 13 18  1  0     0  0
 14  7  2  0     0  0
 15  3  2  0     0  0
 16  8  2  0     0  0
 17  9  2  0     0  0
 18 25  2  0     0  0
 19 24  1  0     0  0
 20  3  1  0     0  0
 21 26  1  0     0  0
 22  8  1  0     0  0
 23  9  1  0     0  0
 24 21  2  0     0  0
 25 21  1  0     0  0
 26 29  1  0     0  0
 27  7  1  0     0  0
 28 12  1  0     0  0
 29 30  1  0     0  0
 30 27  1  0     0  0
  5 14  1  0     0  0
 19 13  2  0     0  0
M  END