
  CDK    6/4/10,11:42

 22 24  0  0  0  0  0  0  0  0999 V2000
   -1.9467  -10.0945    0.0000 C   0  0  0  0  0  0  0  0  0  0  0  0
   -1.2330   -9.6852    0.0000 C   0  0  0  0  0  0  0  0  0  0  0  0
   -1.2330   -8.8583    0.0000 C   0  0  0  0  0  0  0  0  0  0  0  0
   -1.9467   -8.4406    0.0000 O   0  0  0  0  0  0  0  0  0  0  0  0
   -2.6604   -9.6852    0.0000 C   0  0  0  0  0  0  0  0  0  0  0  0
   -2.6578   -8.8601    0.0000 C   0  0  0  0  0  0  0  0  0  0  0  0
   -3.3700   -8.4471    0.0000 C   0  0  0  0  0  0  0  0  0  0  0  0
   -4.0852   -8.8581    0.0000 C   0  0  0  0  0  0  0  0  0  0  0  0
   -4.0838   -9.6865    0.0000 C   0  0  0  0  0  0  0  0  0  0  0  0
   -3.3710  -10.0957    0.0000 C   0  0  0  0  0  0  0  0  0  0  0  0
   -1.9467  -10.9215    0.0000 O   0  0  0  0  0  0  0  0  0  0  0  0
   -0.5193   -8.4490    0.0000 C   0  0  0  0  0  0  0  0  0  0  0  0
    0.1959   -8.8663    0.0000 C   0  0  0  0  0  0  0  0  0  0  0  0
    0.9127   -8.4557    0.0000 C   0  0  0  0  0  0  0  0  0  0  0  0
    0.9157   -7.6278    0.0000 C   0  0  0  0  0  0  0  0  0  0  0  0
    0.1957   -7.2124    0.0000 C   0  0  0  0  0  0  0  0  0  0  0  0
   -0.5183   -7.6255    0.0000 C   0  0  0  0  0  0  0  0  0  0  0  0
    1.6324   -7.2154    0.0000 O   0  0  0  0  0  0  0  0  0  0  0  0
   -0.5175  -10.0997    0.0000 O   0  0  0  0  0  0  0  0  0  0  0  0
   -3.3700  -10.9226    0.0000 O   0  0  0  0  0  0  0  0  0  0  0  0
   -4.8013   -8.4445    0.0000 O   0  0  0  0  0  0  0  0  0  0  0  0
    2.3479   -7.6301    0.0000 C   0  0  0  0  0  0  0  0  0  0  0  0
  1 11  2  0  0  0  0 
  6  4  1  0  0  0  0 
  5  6  2  0  0  0  0 
 12 13  2  0  0  0  0 
  5  1  1  0  0  0  0 
 13 14  1  0  0  0  0 
  6  7  1  0  0  0  0 
 14 15  2  0  0  0  0 
  1  2  1  0  0  0  0 
 15 16  1  0  0  0  0 
  7  8  2  0  0  0  0 
 16 17  2  0  0  0  0 
 17 12  1  0  0  0  0 
  3 12  1  0  0  0  0 
  2  3  2  0  0  0  0 
 15 18  1  0  0  0  0 
  8  9  1  0  0  0  0 
  2 19  1  0  0  0  0 
  3  4  1  0  0  0  0 
 10 20  1  0  0  0  0 
  9 10  2  0  0  0  0 
  8 21  1  0  0  0  0 
 10  5  1  0  0  0  0 
 18 22  1  0  0  0  0 
M  END