
  SciTegic12171313022D

 31 34  0  0  0  0            999 V2000
   55.8821   -9.1308    0.0000 C   0  0
   55.8810   -9.9582    0.0000 C   0  0
   56.5958  -10.3711    0.0000 C   0  0
   57.3122   -9.9577    0.0000 C   0  0
   57.3094   -9.1272    0.0000 C   0  0
   56.5940   -8.7181    0.0000 C   0  0
   55.1662  -10.3701    0.0000 N   0  0
   55.1655  -11.1951    0.0000 C   0  0
   54.4507  -11.6071    0.0000 N   0  0
   55.8797  -11.6082    0.0000 O   0  0
   54.4501  -12.4321    0.0000 C   0  0
   53.7866  -12.9149    0.0000 N   0  0
   54.0409  -13.6997    0.0000 N   0  0
   54.8660  -13.7004    0.0000 C   0  0
   55.1214  -12.9160    0.0000 C   0  0
   55.3505  -14.3682    0.0000 C   0  0
   55.0144  -15.1216    0.0000 C   0  0
   56.1710  -14.2825    0.0000 C   0  0
   55.7585  -15.0767    0.0000 C   0  0
   52.9907  -12.6977    0.0000 C   0  0
   52.7860  -11.9016    0.0000 C   0  0
   51.9909  -11.6844    0.0000 C   0  0
   51.4040  -12.2654    0.0000 C   0  0
   51.6176  -13.0667    0.0000 C   0  0
   52.4123  -13.2802    0.0000 C   0  0
   50.6077  -12.0494    0.0000 C   0  0
   57.9833   -8.6512    0.0000 N   0  0
   58.7638   -8.9141    0.0000 N   0  0
   59.2576   -8.2533    0.0000 N   0  0
   58.7817   -7.5793    0.0000 N   0  0
   57.9938   -7.8238    0.0000 C   0  0
  1  2  2  0
  2  3  1  0
  3  4  2  0
  4  5  1  0
  5  6  2  0
  6  1  1  0
  2  7  1  0
  7  8  1  0
  8  9  1  0
  8 10  2  0
  9 11  1  0
 11 12  1  0
 12 13  1  0
 13 14  2  0
 14 15  1  0
 15 11  2  0
 14 16  1  0
 16 17  1  0
 16 18  1  0
 16 19  1  0
 12 20  1  0
 20 21  2  0
 21 22  1  0
 22 23  2  0
 23 24  1  0
 24 25  2  0
 25 20  1  0
 23 26  1  0
  5 27  1  0
 27 28  1  0
 28 29  2  0
 29 30  1  0
 30 31  2  0
 31 27  1  0
M  END