
  SciTegic03291108572D

 22 24  0  0  0  0            999 V2000
    2.2522    2.9319    0.0000 Cl  0  0
   -1.5538    0.1667    0.0000 Cl  0  0
    2.8140   -3.0588    0.0000 O   0  0
    3.9701   -2.2189    0.0000 O   0  0
    2.2522   -0.3681    0.0000 N   0  0
    2.9196   -0.8530    0.0000 N   0  0
    1.5847   -0.8530    0.0000 C   0  0
    2.6647   -1.6377    0.0000 C   0  0
    2.2522    0.4569    0.0000 C   0  0
    0.8001   -0.5981    0.0000 C   0  0
    1.8397   -1.6377    0.0000 C   0  0
    3.1496   -2.3051    0.0000 C   0  0
    1.5377    0.8694    0.0000 C   0  0
    2.9666    0.8694    0.0000 C   0  0
    0.1870   -1.1501    0.0000 C   0  0
    0.6286    0.2089    0.0000 C   0  0
    1.5377    1.6944    0.0000 C   0  0
    2.9666    1.6944    0.0000 C   0  0
    2.2522    2.1069    0.0000 C   0  0
   -0.5976   -0.8952    0.0000 C   0  0
   -0.1560    0.4638    0.0000 C   0  0
   -0.7691   -0.0882    0.0000 C   0  0
  1 19  1  0
  2 22  1  0
  3 12  2  0
  4 12  1  0
  5  6  1  0
  5  7  1  0
  5  9  1  0
  6  8  2  0
  7 10  1  0
  7 11  2  0
  8 11  1  0
  8 12  1  0
  9 13  2  0
  9 14  1  0
 10 15  2  0
 10 16  1  0
 13 17  1  0
 14 18  2  0
 15 20  1  0
 16 21  2  0
 17 19  2  0
 18 19  1  0
 20 22  2  0
 21 22  1  0
M  END