
  CDK    9/16/09,9:47

 43 46  0  0  0  0  0  0  0  0999 V2000
    2.6523  -16.2175    0.0000 C   0  0  0  0  0  0  0  0  0  0  0  0
    2.1708  -15.5509    0.0000 N   0  0  0  0  0  0  0  0  0  0  0  0
    1.3872  -15.8087    0.0000 C   0  0  0  0  0  0  0  0  0  0  0  0
    3.4730  -16.2252    0.0000 C   0  0  0  0  0  0  0  0  0  0  0  0
    3.8890  -16.9351    0.0000 C   0  0  0  0  0  0  0  0  0  0  0  0
    4.7161  -16.9373    0.0000 C   0  0  0  0  0  0  0  0  0  0  0  0
    5.1331  -17.6439    0.0000 C   0  0  0  0  0  0  0  0  0  0  0  0
    5.9581  -17.6478    0.0000 C   0  0  0  0  0  0  0  0  0  0  0  0
    6.3701  -18.3577    0.0000 C   0  0  0  0  0  0  0  0  0  0  0  0
    7.2021  -18.3589    0.0000 C   0  0  0  0  0  0  0  0  0  0  0  0
    7.6098  -19.0705    0.0000 O   0  0  0  0  0  0  0  0  0  0  0  0
    7.6128  -17.6404    0.0000 O   0  0  0  0  0  0  0  0  0  0  0  0
    5.1332  -16.2168    0.0000 O   0  0  0  0  0  0  0  0  0  0  0  0
    6.3689  -16.9317    0.0000 O   0  0  0  0  0  0  0  0  0  0  0  0
    0.6755  -15.3805    0.0000 C   0  0  0  0  0  0  0  0  0  0  0  0
   -0.0485  -15.7929    0.0000 N   0  0  0  0  0  0  0  0  0  0  0  0
    0.6824  -14.5565    0.0000 O   0  0  0  0  0  0  0  0  0  0  0  0
    2.1593  -16.8841    0.0000 C   0  0  0  0  0  0  0  0  0  0  0  0
    1.3814  -16.6317    0.0000 C   0  0  0  0  0  0  0  0  0  0  0  0
    0.6568  -17.0498    0.0000 C   0  0  0  0  0  0  0  0  0  0  0  0
    2.1555  -17.7038    0.0000 C   0  0  0  0  0  0  0  0  0  0  0  0
    1.4351  -18.1127    0.0000 C   0  0  0  0  0  0  0  0  0  0  0  0
    1.4294  -18.9315    0.0000 C   0  0  0  0  0  0  0  0  0  0  0  0
    2.1434  -19.3552    0.0000 C   0  0  0  0  0  0  0  0  0  0  0  0
    2.8603  -18.9413    0.0000 C   0  0  0  0  0  0  0  0  0  0  0  0
    2.8623  -18.1197    0.0000 C   0  0  0  0  0  0  0  0  0  0  0  0
    2.1391  -20.1749    0.0000 F   0  0  0  0  0  0  0  0  0  0  0  0
   -0.0634  -16.6348    0.0000 C   0  0  0  0  0  0  0  0  0  0  0  0
   -0.7872  -17.0517    0.0000 C   0  0  0  0  0  0  0  0  0  0  0  0
   -0.7850  -17.8876    0.0000 C   0  0  0  0  0  0  0  0  0  0  0  0
   -0.0529  -18.3047    0.0000 C   0  0  0  0  0  0  0  0  0  0  0  0
    0.6637  -17.8812    0.0000 C   0  0  0  0  0  0  0  0  0  0  0  0
   -0.7607  -15.3725    0.0000 C   0  0  0  0  0  0  0  0  0  0  0  0
    2.4268  -14.7685    0.0000 C   0  0  0  0  0  0  0  0  0  0  0  0
   -0.7507  -14.5493    0.0000 C   0  0  0  0  0  0  0  0  0  0  0  0
   -1.4621  -14.1374    0.0000 C   0  0  0  0  0  0  0  0  0  0  0  0
   -2.1786  -14.5366    0.0000 C   0  0  0  0  0  0  0  0  0  0  0  0
   -2.1834  -15.3647    0.0000 C   0  0  0  0  0  0  0  0  0  0  0  0
   -1.4756  -15.7814    0.0000 C   0  0  0  0  0  0  0  0  0  0  0  0
   -2.8914  -14.1213    0.0000 C   0  0  0  0  0  0  0  0  0  0  0  0
   -2.8809  -13.2974    0.0000 O   0  0  0  0  0  0  0  0  0  0  0  0
   -3.6064  -14.5257    0.0000 O   0  0  0  0  0  0  0  0  0  0  0  0
   -4.3150  -14.1103    0.0000 C   0  0  0  0  0  0  0  0  0  0  0  0
 21 22  2  0  0  0  0 
  1  4  1  0  0  0  0 
 22 23  1  0  0  0  0 
  4  5  1  0  0  0  0 
 23 24  2  0  0  0  0 
  5  6  1  0  0  0  0 
 24 25  1  0  0  0  0 
  6  7  1  0  0  0  0 
 25 26  2  0  0  0  0 
 26 21  1  0  0  0  0 
 18 21  1  0  0  0  0 
  7  8  1  0  0  0  0 
 24 27  1  0  0  0  0 
  8  9  1  0  0  0  0 
 20 28  2  0  0  0  0 
  9 10  1  0  0  0  0 
 28 29  1  0  0  0  0 
 10 11  1  0  0  0  0 
 29 30  2  0  0  0  0 
 10 12  2  0  0  0  0 
 30 31  1  0  0  0  0 
  6 13  1  1  0  0  0 
 31 32  2  0  0  0  0 
 32 20  1  0  0  0  0 
  8 14  1  1  0  0  0 
 16 33  1  0  0  0  0 
  3 15  1  0  0  0  0 
  2 34  1  0  0  0  0 
 15 16  1  0  0  0  0 
 33 35  2  0  0  0  0 
 15 17  2  0  0  0  0 
 35 36  1  0  0  0  0 
 18 19  1  0  0  0  0 
 36 37  2  0  0  0  0 
 37 38  1  0  0  0  0 
 18  1  2  0  0  0  0 
 38 39  2  0  0  0  0 
 39 33  1  0  0  0  0 
  1  2  1  0  0  0  0 
 37 40  1  0  0  0  0 
 19 20  1  0  0  0  0 
 40 41  2  0  0  0  0 
  2  3  1  0  0  0  0 
 40 42  1  0  0  0  0 
  3 19  2  0  0  0  0 
 42 43  1  0  0  0  0 
M  END