
  CDK    9/16/09,10:8

 13 14  0  0  0  0  0  0  0  0999 V2000
    1.2865   -2.7835    0.0000 C   0  0  0  0  0  0  0  0  0  0  0  0
    1.2854   -3.6085    0.0000 C   0  0  0  0  0  0  0  0  0  0  0  0
    1.9981   -4.0202    0.0000 C   0  0  0  0  0  0  0  0  0  0  0  0
    1.9963   -2.3720    0.0000 C   0  0  0  0  0  0  0  0  0  0  0  0
    2.7096   -2.7799    0.0000 C   0  0  0  0  0  0  0  0  0  0  0  0
    2.7084   -3.6106    0.0000 C   0  0  0  0  0  0  0  0  0  0  0  0
    3.4232   -4.0246    0.0000 N   0  0  0  0  0  0  0  0  0  0  0  0
    4.1437   -3.6126    0.0000 C   0  0  0  0  0  0  0  0  0  0  0  0
    4.1449   -2.7820    0.0000 C   0  0  0  0  0  0  0  0  0  0  0  0
    3.4256   -2.3633    0.0000 C   0  0  0  0  0  0  0  0  0  0  0  0
    4.8584   -2.3724    0.0000 O   0  0  0  0  0  0  0  0  0  0  0  0
    4.8550   -4.0260    0.0000 O   0  0  0  0  0  0  0  0  0  0  0  0
    1.9938   -1.5494    0.0000 F   0  0  0  0  0  0  0  0  0  0  0  0
  3  6  2  0  0  0  0 
  1  2  2  0  0  0  0 
  5  4  2  0  0  0  0 
  4  1  1  0  0  0  0 
  5 10  1  0  0  0  0 
  6  7  1  0  0  0  0 
  7  8  1  0  0  0  0 
  8  9  1  0  0  0  0 
  9 10  2  0  0  0  0 
  5  6  1  0  0  0  0 
  9 11  1  0  0  0  0 
  8 12  2  0  0  0  0 
  2  3  1  0  0  0  0 
  4 13  1  0  0  0  0 
M  END