
          11280715262D 1   1.00000     0.00000     0

 17 17  0     0  0            999 V2000
    1.4917   -2.3000    0.0000 N   0  0  0  0  0  0           0  0  0
    1.3542   -3.6167    0.0000 N   0  0  0  0  0  0           0  0  0
    0.9417   -2.9042    0.0000 C   0  0  0  0  0  0           0  0  0
    2.2417   -2.6375    0.0000 C   0  0  0  0  0  0           0  0  0
    2.1542   -3.4542    0.0000 C   0  0  0  0  0  0           0  0  0
    8.6792   -2.2417    0.0000 C   0  0  3  0  0  0           0  0  0
    5.1042   -2.6417    0.0000 O   0  0  0  0  0  0           0  0  0
    2.9625   -2.2292    0.0000 C   0  0  0  0  0  0           0  0  0
    7.9625   -2.6542    0.0000 C   0  0  0  0  0  0           0  0  0
    9.3917   -2.6625    0.0000 C   0  0  0  0  0  0           0  0  0
    8.6792   -1.4167    0.0000 C   0  0  0  0  0  0           0  0  0
    9.3917   -1.8292    0.0000 C   0  0  0  0  0  0           0  0  0
    5.8167   -2.2375    0.0000 C   0  0  0  0  0  0           0  0  0
    4.3917   -2.2292    0.0000 C   0  0  0  0  0  0           0  0  0
    3.6750   -2.6417    0.0000 C   0  0  0  0  0  0           0  0  0
    7.2500   -2.2417    0.0000 C   0  0  0  0  0  0           0  0  0
    6.5292   -2.6500    0.0000 C   0  0  0  0  0  0           0  0  0
  2  3  1  0     0  0
  3  1  2  0     0  0
  4  1  1  0     0  0
  5  4  2  0     0  0
  6  9  1  0     0  0
  7 14  1  0     0  0
  8  4  1  0     0  0
  9 16  1  0     0  0
 10  6  1  0     0  0
 11  6  1  0     0  0
 12  6  1  0     0  0
 13  7  1  0     0  0
 14 15  1  0     0  0
 15  8  1  0     0  0
 16 17  1  0     0  0
 17 13  1  0     0  0
  5  2  1  0     0  0
M  END