
          11280715362D 1   1.00000     0.00000     0

 39 42  0     1  0            999 V2000
    1.5875   -3.6417    0.0000 C   0  0  1  0  0  0           0  0  0
    1.4042   -2.8375    0.0000 C   0  0  2  0  0  0           0  0  0
    2.1667   -4.2250    0.0000 N   0  0  3  0  0  0           0  0  0
    4.2125    0.8833    0.0000 C   0  0  0  0  0  0           0  0  0
    3.8042    0.1625    0.0000 N   0  0  0  0  0  0           0  0  0
    4.2292   -0.5417    0.0000 C   0  0  0  0  0  0           0  0  0
    3.8292   -1.2542    0.0000 C   0  0  0  0  0  0           0  0  0
    0.8792   -4.0667    0.0000 C   0  0  0  0  0  0           0  0  0
    0.5792   -2.7667    0.0000 C   0  0  3  0  0  0           0  0  0
    3.0167   -1.2792    0.0000 C   0  0  0  0  0  0           0  0  0
    6.3625   -3.6292    0.0000 C   0  0  0  0  0  0           0  0  0
    0.1542   -2.0542    0.0000 O   0  0  0  0  0  0           0  0  0
    5.0375    0.8833    0.0000 O   0  0  0  0  0  0           0  0  0
    0.2542   -3.5167    0.0000 C   0  0  0  0  0  0           0  0  0
    7.0167   -3.3542    0.0000 O   0  0  0  0  0  0           0  0  0
    2.6167   -2.0042    0.0000 C   0  0  0  0  0  0           0  0  0
    2.6042   -0.5792    0.0000 C   0  0  0  0  0  0           0  0  0
    3.7917    1.5958    0.0000 N   0  0  0  0  0  0           0  0  0
    3.4917   -2.7875    0.0000 C   0  0  0  0  0  0           0  0  0
    4.3625   -2.8500    0.0000 C   0  0  0  0  0  0           0  0  0
    2.1917   -2.6167    0.0000 O   0  0  0  0  0  0           0  0  0
    0.5625   -1.3375    0.0000 C   0  0  0  0  0  0           0  0  0
    1.3875   -1.3250    0.0000 C   0  0  0  0  0  0           0  0  0
    6.2625   -4.3292    0.0000 O   0  0  0  0  0  0           0  0  0
    1.7875   -0.6042    0.0000 C   0  0  0  0  0  0           0  0  0
    1.8000   -2.0167    0.0000 C   0  0  0  0  0  0           0  0  0
    2.9417   -3.9500    0.0000 C   0  0  0  0  0  0           0  0  0
    1.9000   -5.0000    0.0000 C   0  0  0  0  0  0           0  0  0
    5.0417   -0.5250    0.0000 C   0  0  0  0  0  0           0  0  0
    4.2417   -1.9625    0.0000 C   0  0  0  0  0  0           0  0  0
    2.8667   -3.1500    0.0000 C   0  0  0  0  0  0           0  0  0
    5.8000   -3.1917    0.0000 C   0  0  0  0  0  0           0  0  0
    4.8625   -3.4417    0.0000 C   0  0  0  0  0  0           0  0  0
    3.6417   -4.3792    0.0000 C   0  0  0  0  0  0           0  0  0
    2.3417   -5.6917    0.0000 C   0  0  0  0  0  0           0  0  0
    5.4625   -1.2292    0.0000 C   0  0  0  0  0  0           0  0  0
    5.0625   -1.9500    0.0000 C   0  0  0  0  0  0           0  0  0
    3.7417   -5.2000    0.0000 C   0  0  0  0  0  0           0  0  0
    3.1625   -5.7792    0.0000 C   0  0  0  0  0  0           0  0  0
  2  1  1  0     0  0
  1  3  1  1     0  0
  4  5  1  0     0  0
  5  6  1  0     0  0
  6  7  1  0     0  0
  7 10  1  0     0  0
  8  1  1  0     0  0
  9  2  1  0     0  0
 10 16  1  0     0  0
 11 32  1  0     0  0
 12  9  1  0     0  0
 13  4  2  0     0  0
 14  8  1  0     0  0
 15 11  2  0     0  0
 16 26  2  0     0  0
 17 25  1  0     0  0
 18  4  1  0     0  0
 19 31  1  0     0  0
 20 19  2  0     0  0
  2 21  1  6     0  0
 22 12  1  0     0  0
 23 22  1  0     0  0
 24 11  1  0     0  0
 25 23  2  0     0  0
 26 23  1  0     0  0
 27  3  1  0     0  0
 28  3  1  0     0  0
 29  6  2  0     0  0
 30  7  2  0     0  0
 31 21  1  0     0  0
 32 33  1  0     0  0
 33 20  1  0     0  0
 34 27  1  0     0  0
 35 28  1  0     0  0
 36 37  2  0     0  0
 37 30  1  0     0  0
 38 34  1  0     0  0
 39 35  1  0     0  0
  9 14  1  0     0  0
 38 39  1  0     0  0
 10 17  2  0     0  0
 36 29  1  0     0  0
M  END