
  SciTegic01161211232D

 28 28  0  0  0  0            999 V2000
    2.3383   -1.3500    0.0000 C   0  0
    1.2990   -0.7500    0.0000 C   0  0
    1.2990    0.7500    0.0000 C   0  0
    0.0000    1.5000    0.0000 C   0  0
   -1.2990    0.7500    0.0000 C   0  0
   -1.2990   -0.7500    0.0000 C   0  0
    0.0000   -1.5000    0.0000 C   0  0
    0.0000   -3.0008    0.0000 N   0  0
   -1.2978   -3.7529    0.0000 C   0  0
   -1.2955   -5.2529    0.0000 C   0  0
    0.0048   -6.0009    0.0000 N   0  0
    0.0102   -7.5017    0.0000 C   0  0
    1.3123   -8.2482    0.0000 C   0  0
    2.3495   -7.6447    0.0000 O   0  0
    1.3177   -9.7490    0.0000 C   0  0
    2.6180  -10.4970    0.0000 C   0  0
    2.6204  -11.9970    0.0000 C   0  0
    1.3226  -12.7491    0.0000 C   0  0
    1.3245  -13.9491    0.0000 O   0  0
    0.0223  -12.0012    0.0000 C   0  0
    0.0199  -10.5012    0.0000 C   0  0
   -1.2778  -12.7510    0.0000 C   0  0
   -2.3171  -12.1512    0.0000 O   0  0
   -1.2779  -13.9510    0.0000 N   0  0
    1.3026   -5.2488    0.0000 C   0  0
    1.3002   -3.7488    0.0000 C   0  0
    7.6204   -6.3759    0.0000 Cl  0  0
    5.1204   -6.3759    0.0000 Cl  0  0
  1  2  1  0
  2  3  2  0
  3  4  1  0
  4  5  2  0
  5  6  1  0
  6  7  2  0
  7  2  1  0
  7  8  1  0
  8  9  1  0
  9 10  1  0
 10 11  1  0
 11 12  1  0
 12 13  1  0
 13 14  1  0
 13 15  1  0
 15 16  2  0
 16 17  1  0
 17 18  2  0
 18 19  1  0
 18 20  1  0
 20 21  2  0
 21 15  1  0
 20 22  1  0
 22 23  2  0
 22 24  1  0
 11 25  1  0
 25 26  1  0
 26  8  1  0
M  END