
  SciTegic11201309402D

 50 55  0  0  0  0            999 V2000
    7.6303   -4.6306    0.0000 N   0  0
    6.2574   -6.5195    0.0000 N   0  0
    7.4556   -5.4336    0.0000 C   0  0
    6.9688   -6.1076    0.0000 C   0  0  1  0  0  0
    7.4556   -3.8110    0.0000 C   0  0  2  0  0  0
    5.4336   -6.6027    0.0000 C   0  0
    6.9688   -3.1495    0.0000 C   0  0
    4.6473   -6.3447    0.0000 C   0  0  1  0  0  0
    6.2574   -2.7251    0.0000 N   0  0
    4.0315   -5.7831    0.0000 N   0  0
    6.2574   -7.3433    0.0000 C   0  0
    8.4541   -4.7180    0.0000 C   0  0
    8.1670   -3.3991    0.0000 C   0  0
    4.6473   -2.8999    0.0000 C   0  0
    7.6885   -6.5195    0.0000 C   0  0
    4.0315   -3.4615    0.0000 N   0  0
    8.7869   -3.9608    0.0000 C   0  0
    3.0871   -0.8238    0.0000 C   0  0
    3.6987   -5.0300    0.0000 C   0  0
    5.4336   -2.6461    0.0000 C   0  0  2  0  0  0
    4.2354   -7.0562    0.0000 C   0  0
    6.9688   -7.7551    0.0000 C   0  0
    3.4116   -7.0562    0.0000 C   0  0
    7.6885   -7.3433    0.0000 C   0  0
    2.9248   -7.7260    0.0000 S   0  0
    8.2128   -5.7706    0.0000 O   0  0
    5.3545   -7.4181    0.0000 O   0  0
    2.3340   -0.4785    0.0000 N   0  0
    7.5263   -2.5379    0.0000 O   0  0
    4.2354   -2.1884    0.0000 O   0  0
    2.1385   -7.4681    0.0000 C   0  0
    2.9248   -6.3947    0.0000 C   0  0
    3.6987   -4.2062    0.0000 C   0  0
    2.8874   -5.1965    0.0000 O   0  0
    2.1385   -6.6443    0.0000 C   0  0
    3.7569   -0.3287    0.0000 N   0  0
    3.1745   -1.6393    0.0000 N   0  0
    8.9409   -5.3837    0.0000 C   0  0
    9.6107   -3.8734    0.0000 C   0  0
    5.3545   -1.8223    0.0000 C   0  0
    6.9688   -8.5789    0.0000 C   0  0
    8.4042   -7.7551    0.0000 C   0  0
    4.5100   -0.6657    0.0000 C   0  0
    4.5973   -1.4895    0.0000 C   0  0
    9.7604   -5.2963    0.0000 C   0  0
   10.0892   -4.5432    0.0000 C   0  0
    8.4042   -8.5789    0.0000 C   0  0
    7.6885   -8.9908    0.0000 C   0  0
    7.6599   -2.8321    0.0000 H   0  0
    7.9463   -5.8965    0.0000 H   0  0
  4  2  1  0
  3  1  1  0
  4  3  1  0
  5  1  1  0
  6  2  1  0
  7  5  1  0
  8  6  1  0
  9  7  1  0
 10  8  1  0
 11  2  1  0
 12  1  1  0
 13  5  1  0
 14 20  1  0
 15  4  1  0
 16 14  1  0
 17 12  1  0
 18 36  1  0
 19 10  1  0
 20  9  1  0
  8 21  1  6
 22 24  2  0
 23 21  1  0
 24 15  1  0
 25 23  1  0
 26  3  2  0
 27  6  2  0
 28 18  2  0
 29  7  2  0
 30 14  2  0
 31 25  1  0
 32 23  2  0
 33 16  1  0
 34 19  2  0
 35 32  1  0
 36 43  1  0
 37 18  1  0
 38 12  1  0
 39 17  1  0
 20 40  1  6
 41 22  1  0
 42 24  1  0
 43 44  1  0
 44 40  1  0
 45 38  1  0
 46 45  1  0
 47 42  2  0
 48 47  1  0
 13 17  1  0
 39 46  1  0
 11 22  1  0
 19 33  1  0
 41 48  2  0
 35 31  2  0
  5 49  1  1
  4 50  1  6
M  END