
  SciTegic09251318272D

315353  0  0  0  0            999 V2000
   14.9940  -27.8754    0.0000 O   0  0
   15.8115  -27.7539    0.0000 C   0  0
   16.0741  -26.9747    0.0000 C   0  0  2  0  0  0
   15.6014  -26.3005    0.0000 C   0  0  1  0  0  0
   14.7750  -26.2882    0.0000 O   0  0
   16.0925  -25.6406    0.0000 C   0  0
   16.8734  -25.9071    0.0000 C   0  0  1  0  0  0
   16.8632  -26.7281    0.0000 O   0  0
   17.5459  -25.4306    0.0000 N   0  0
   17.5583  -24.6041    0.0000 C   0  0
   18.3473  -24.3575    0.0000 N   0  0
   18.8255  -25.0338    0.0000 C   0  0
   19.6422  -25.1319    0.0000 C   0  0
   20.1371  -24.4703    0.0000 O   0  0
   19.9679  -25.8899    0.0000 N   0  0
   19.4768  -26.5499    0.0000 C   0  0
   19.8024  -27.3079    0.0000 N   0  0
   18.6562  -26.4534    0.0000 N   0  0
   18.3306  -25.6954    0.0000 C   0  0
   11.9844  -28.1738    0.0000 O   0  0
   12.1328  -28.9869    0.0000 C   0  0
   12.9203  -29.2237    0.0000 C   0  0  2  0  0  0
   13.5785  -28.7290    0.0000 C   0  0  1  0  0  0
   13.5637  -27.9027    0.0000 O   0  0
   14.2543  -29.1981    0.0000 C   0  0
   14.0137  -29.9873    0.0000 C   0  0  1  0  0  0
   13.1928  -30.0042    0.0000 O   0  0
   14.5121  -30.6438    0.0000 N   0  0
   15.3385  -30.6289    0.0000 C   0  0
   15.6110  -31.4094    0.0000 N   0  0
   14.9508  -31.9096    0.0000 C   0  0
   14.8797  -32.7291    0.0000 C   0  0
   15.5572  -33.2020    0.0000 O   0  0
   14.1328  -33.0796    0.0000 N   0  0
   13.4571  -32.6105    0.0000 C   0  0
   12.7102  -32.9610    0.0000 N   0  0
   13.5264  -31.7872    0.0000 N   0  0
   14.2733  -31.4368    0.0000 C   0  0
    8.9453  -27.7876    0.0000 O   0  0
    8.9504  -28.6124    0.0000 C   0  0
    9.6632  -29.0262    0.0000 C   0  0  2  0  0  0
   10.4158  -28.6880    0.0000 C   0  0  1  0  0  0
   10.5872  -27.8769    0.0000 O   0  0
   10.9702  -29.2946    0.0000 C   0  0
   10.5581  -30.0112    0.0000 C   0  0  1  0  0  0
    9.7524  -29.8418    0.0000 O   0  0
   10.8962  -30.7637    0.0000 N   0  0
   11.7200  -30.8503    0.0000 C   0  0
   12.2022  -30.1768    0.0000 O   0  0
   12.0581  -31.6028    0.0000 N   0  0
   11.5742  -32.2725    0.0000 C   0  0
   11.9124  -33.0250    0.0000 O   0  0
   10.7560  -32.1880    0.0000 C   0  0
   10.2721  -32.8576    0.0000 C   0  0
   10.4178  -31.4354    0.0000 C   0  0
    5.9025  -27.4533    0.0000 O   0  0
    5.9216  -28.2779    0.0000 C   0  0
    6.6414  -28.6796    0.0000 C   0  0  2  0  0  0
    7.3880  -28.3287    0.0000 C   0  0  1  0  0  0
    7.5457  -27.5148    0.0000 O   0  0
    7.9527  -28.9257    0.0000 C   0  0
    7.5528  -29.6492    0.0000 C   0  0  1  0  0  0
    6.7444  -29.4935    0.0000 O   0  0
    7.9037  -30.3959    0.0000 N   0  0
    8.7288  -30.4685    0.0000 C   0  0
    9.1995  -29.7870    0.0000 O   0  0
    9.0797  -31.2152    0.0000 N   0  0
    8.6072  -31.8930    0.0000 C   0  0
    8.9581  -32.6397    0.0000 O   0  0
    7.7877  -31.8224    0.0000 C   0  0
    7.3152  -32.5002    0.0000 C   0  0
    7.4368  -31.0757    0.0000 C   0  0
    2.9289  -26.6998    0.0000 C   0  0
    3.4332  -27.3493    0.0000 C   0  0  2  0  0  0
    4.2563  -27.3279    0.0000 C   0  0  1  0  0  0
    4.7233  -26.6459    0.0000 O   0  0
    4.5350  -28.1018    0.0000 C   0  0
    3.8814  -28.6054    0.0000 C   0  0  1  0  0  0
    3.2028  -28.1433    0.0000 O   0  0
    3.9069  -29.4292    0.0000 N   0  0
    4.5889  -29.8962    0.0000 C   0  0
    4.3584  -30.6902    0.0000 N   0  0
    3.5305  -30.7150    0.0000 C   0  0
    2.9974  -31.3415    0.0000 C   0  0
    3.2753  -32.1195    0.0000 O   0  0
    2.1857  -31.1940    0.0000 N   0  0
    1.9071  -30.4201    0.0000 C   0  0
    1.0953  -30.2726    0.0000 N   0  0
    2.4409  -29.7895    0.0000 N   0  0
    3.2526  -29.9369    0.0000 C   0  0
    5.5459  -26.7093    0.0000 P   0  0
    5.6017  -25.8782    0.0000 O   0  0
    6.2842  -26.3417    0.0000 N   0  0
    3.2403  -25.9358    0.0000 O   0  0
    1.1440  -23.7487    0.0000 O   0  0
    0.5391  -24.3119    0.0000 C   0  0
    0.7334  -25.0838    0.0000 C   0  0  2  0  0  0
    1.5095  -25.3588    0.0000 C   0  0  1  0  0  0
    2.2238  -24.9328    0.0000 O   0  0
    1.4922  -26.1812    0.0000 C   0  0
    0.7015  -26.4170    0.0000 C   0  0  1  0  0  0
    0.2337  -25.7423    0.0000 O   0  0
    0.4301  -27.1953    0.0000 N   0  0
    0.8993  -27.8757    0.0000 C   0  0
    0.3997  -28.5342    0.0000 N   0  0
   -0.3822  -28.2606    0.0000 C   0  0
   -1.1044  -28.6544    0.0000 C   0  0
   -1.1238  -29.4804    0.0000 O   0  0
   -1.8093  -28.2258    0.0000 N   0  0
   -1.7920  -27.4034    0.0000 C   0  0
   -2.4970  -26.9748    0.0000 N   0  0
   -1.0677  -27.0060    0.0000 N   0  0
   -0.3627  -27.4346    0.0000 C   0  0
    0.0132  -20.8988    0.0000 O   0  0
   -0.7065  -21.3018    0.0000 C   0  0
   -0.7243  -22.1258    0.0000 C   0  0  2  0  0  0
   -0.0646  -22.6212    0.0000 C   0  0  1  0  0  0
    0.7284  -22.3794    0.0000 O   0  0
   -0.3277  -23.3997    0.0000 C   0  0
   -1.1542  -23.3852    0.0000 C   0  0  1  0  0  0
   -1.3952  -22.5980    0.0000 O   0  0
   -1.6496  -24.0449    0.0000 N   0  0
   -1.3274  -24.8080    0.0000 C   0  0
   -0.5048  -24.9047    0.0000 O   0  0
   -1.8228  -25.4677    0.0000 N   0  0
   -2.6429  -25.3676    0.0000 C   0  0
   -3.1383  -26.0273    0.0000 O   0  0
   -2.9643  -24.6104    0.0000 C   0  0
   -3.7844  -24.5104    0.0000 C   0  0
   -2.4689  -23.9507    0.0000 C   0  0
    0.0220  -20.0782    0.0000 P   0  0
    0.8458  -20.0750    0.0000 O   0  0
    1.3314  -22.9424    0.0000 P   0  0
    1.9125  -22.3542    0.0000 N   0  0
    2.0416  -23.3542    0.0000 O   0  0
    3.0224  -25.1400    0.0000 P   0  0
    3.0754  -24.3094    0.0000 O   0  0
    3.7593  -24.7708    0.0000 N   0  0
    8.3256  -27.2457    0.0000 P   0  0
    7.9083  -26.5250    0.0000 O   0  0
    8.7333  -26.5250    0.0000 N   0  0
   11.3716  -27.6211    0.0000 P   0  0
   10.9541  -26.9042    0.0000 N   0  0
   11.7791  -26.9042    0.0000 O   0  0
   14.2706  -27.4774    0.0000 P   0  0
   13.8500  -26.7584    0.0000 N   0  0
   14.6750  -26.7584    0.0000 O   0  0
    1.3300  -17.1525    0.0000 O   0  0
    0.5309  -16.9415    0.0000 C   0  0
   -0.0180  -17.5537    0.0000 C   0  0  2  0  0  0
    0.1502  -18.3598    0.0000 C   0  0  1  0  0  0
    0.9046  -18.6973    0.0000 O   0  0
   -0.5615  -18.7723    0.0000 C   0  0
   -1.1738  -18.2192    0.0000 C   0  0  1  0  0  0
   -0.8404  -17.4689    0.0000 O   0  0
   -1.9798  -18.3916    0.0000 N   0  0
   -2.3174  -19.1460    0.0000 C   0  0
   -3.1397  -19.0612    0.0000 N   0  0
   -3.3120  -18.2510    0.0000 C   0  0
   -4.0237  -17.8385    0.0000 C   0  0
   -4.7397  -18.2510    0.0000 O   0  0
   -4.0237  -17.0135    0.0000 N   0  0
   -3.3120  -16.6010    0.0000 C   0  0
   -3.3120  -15.7760    0.0000 N   0  0
   -2.5962  -17.0135    0.0000 N   0  0
   -2.5962  -17.8385    0.0000 C   0  0
    2.7747  -14.4417    0.0000 O   0  0
    2.0203  -14.1083    0.0000 C   0  0
    1.3507  -14.5888    0.0000 C   0  0  2  0  0  0
    1.3507  -15.4139    0.0000 C   0  0  1  0  0  0
    2.0206  -15.9023    0.0000 O   0  0
    0.5702  -15.6710    0.0000 C   0  0  2  0  0  0
    0.0855  -15.0014    0.0000 C   0  0  1  0  0  0
    0.5702  -14.3359    0.0000 O   0  0
   -0.7395  -15.0014    0.0000 N   0  0
   -1.1562  -15.7172    0.0000 C   0  0
   -0.7395  -16.4331    0.0000 O   0  0
   -1.9812  -15.7172    0.0000 N   0  0
   -2.3937  -15.0014    0.0000 C   0  0
   -3.2187  -15.0014    0.0000 O   0  0
   -1.9812  -14.2896    0.0000 C   0  0
   -1.1562  -14.2896    0.0000 C   0  0
    2.0371  -16.7271    0.0000 P   0  0
    2.8583  -16.7250    0.0000 N   0  0
    2.4416  -17.4375    0.0000 O   0  0
    6.3300  -11.5717    0.0000 O   0  0
    5.5993  -11.1854    0.0000 C   0  0
    4.9261  -11.6577    0.0000 C   0  0  2  0  0  0
    4.9077  -12.4809    0.0000 C   0  0  1  0  0  0
    5.5662  -12.9803    0.0000 O   0  0
    4.1211  -12.7217    0.0000 C   0  0
    3.6498  -12.0445    0.0000 C   0  0  1  0  0  0
    4.1443  -11.3890    0.0000 O   0  0
    2.8257  -12.0301    0.0000 N   0  0
    2.3262  -12.6885    0.0000 C   0  0
    1.5444  -12.4200    0.0000 N   0  0
    1.5598  -11.5918    0.0000 C   0  0
    0.9598  -11.0290    0.0000 C   0  0
    0.1692  -11.2689    0.0000 O   0  0
    1.1464  -10.2253    0.0000 N   0  0
    1.9330   -9.9845    0.0000 C   0  0
    2.1196   -9.1809    0.0000 N   0  0
    2.5370  -10.5483    0.0000 N   0  0
    2.3504  -11.3518    0.0000 C   0  0
   10.6525  -12.7310    0.0000 O   0  0
   10.6350  -11.9047    0.0000 C   0  0
    9.8951  -11.5459    0.0000 C   0  0  2  0  0  0
    9.1667  -11.9299    0.0000 C   0  0
    8.5740  -11.3595    0.0000 C   0  0  1  0  0  0
    7.7602  -11.5047    0.0000 O   0  0
    8.9368  -10.6185    0.0000 C   0  0  1  0  0  0
    9.7499  -10.7321    0.0000 O   0  0
    8.5488   -9.8912    0.0000 N   0  0
    7.7306   -9.7747    0.0000 C   0  0
    7.5854   -8.9609    0.0000 N   0  0
    8.3166   -8.5718    0.0000 C   0  0
    8.5169   -7.7739    0.0000 C   0  0
    7.9230   -7.1996    0.0000 O   0  0
    9.3099   -7.5465    0.0000 N   0  0
    9.9026   -8.1169    0.0000 C   0  0
   10.6957   -7.8893    0.0000 N   0  0
    9.7035   -8.9187    0.0000 N   0  0
    8.9105   -9.1462    0.0000 C   0  0
   12.9572  -15.2742    0.0000 O   0  0
   12.6662  -14.4966    0.0000 C   0  0
   13.1435  -13.8246    0.0000 C   0  0  2  0  0  0
   12.8756  -13.0443    0.0000 C   0  0  1  0  0  0
   12.0826  -12.7993    0.0000 O   0  0
   13.5303  -12.5477    0.0000 C   0  0
   14.2062  -13.0236    0.0000 C   0  0  1  0  0  0
   13.9638  -13.8104    0.0000 O   0  0
   14.9865  -12.7558    0.0000 N   0  0
   15.1481  -11.9434    0.0000 C   0  0
   14.5216  -11.4016    0.0000 O   0  0
   15.9284  -11.6755    0.0000 N   0  0
   16.5510  -12.2187    0.0000 C   0  0
   17.3313  -11.9507    0.0000 O   0  0
   16.3920  -13.0257    0.0000 C   0  0
   17.0146  -13.5689    0.0000 C   0  0
   15.6117  -13.2936    0.0000 C   0  0
   14.2630  -17.5667    0.0000 O   0  0
   15.0833  -17.4809    0.0000 C   0  0
   15.4254  -16.7310    0.0000 C   0  0  2  0  0  0
   15.0152  -16.0152    0.0000 C   0  0  1  0  0  0
   14.1864  -16.0035    0.0000 O   0  0
   15.5646  -15.4041    0.0000 C   0  0
   16.3181  -15.7441    0.0000 C   0  0  1  0  0  0
   16.2283  -16.5625    0.0000 O   0  0
   17.0339  -15.3339    0.0000 N   0  0
   17.0395  -14.5057    0.0000 C   0  0
   16.3221  -14.0916    0.0000 O   0  0
   17.7553  -14.0955    0.0000 N   0  0
   18.4691  -14.5115    0.0000 C   0  0
   19.1849  -14.1013    0.0000 O   0  0
   18.4651  -15.3341    0.0000 C   0  0
   19.1789  -15.7502    0.0000 C   0  0
   17.7492  -15.7443    0.0000 C   0  0
   11.4670  -19.0243    0.0000 C   0  0
   12.1240  -19.5188    0.0000 C   0  0  2  0  0  0
   12.9127  -19.2822    0.0000 C   0  0  1  0  0  0
   13.1844  -18.5016    0.0000 O   0  0
   13.3846  -19.9560    0.0000 C   0  0
   12.8859  -20.6133    0.0000 C   0  0  1  0  0  0
   12.1099  -20.3453    0.0000 O   0  0
   13.1266  -21.4016    0.0000 N   0  0
   13.9072  -21.6734    0.0000 C   0  0
   13.8931  -22.5000    0.0000 N   0  0
   13.1006  -22.7411    0.0000 C   0  0
   12.7505  -23.4855    0.0000 C   0  0
   13.2228  -24.1634    0.0000 O   0  0
   11.9285  -23.5561    0.0000 N   0  0
   11.4566  -22.8823    0.0000 C   0  0
   10.6347  -22.9529    0.0000 N   0  0
   11.8064  -22.1338    0.0000 N   0  0
   12.6283  -22.0631    0.0000 C   0  0
   10.7090  -19.3470    0.0000 O   0  0
    8.4186  -19.5464    0.0000 C   0  0
    8.4564  -20.3679    0.0000 C   0  0  2  0  0  0
    9.1415  -20.8247    0.0000 C   0  0  1  0  0  0
    9.9150  -20.5365    0.0000 O   0  0
    8.9232  -21.6178    0.0000 C   0  0
    8.0989  -21.6527    0.0000 C   0  0  1  0  0  0
    7.8106  -20.8839    0.0000 O   0  0
    7.6450  -22.3407    0.0000 N   0  0
    7.9332  -23.1153    0.0000 C   0  0
    7.2874  -23.6314    0.0000 N   0  0
    6.5964  -23.1745    0.0000 C   0  0
    5.7997  -23.3794    0.0000 C   0  0
    5.5785  -24.1754    0.0000 O   0  0
    5.2213  -22.7911    0.0000 N   0  0
    5.4396  -21.9980    0.0000 C   0  0
    4.8612  -21.4097    0.0000 N   0  0
    6.2393  -21.7902    0.0000 N   0  0
    6.8177  -22.3785    0.0000 C   0  0
    9.9669  -19.7131    0.0000 P   0  0
    7.6859  -19.1670    0.0000 O   0  0
    9.1369  -19.7203    0.0000 O   0  0
    9.5458  -19.0038    0.0000 N   0  0
   13.9948  -18.3470    0.0000 P   0  0
   14.2041  -19.1417    0.0000 N   0  0
   14.8166  -18.3459    0.0000 O   0  0
   13.7838  -15.2835    0.0000 P   0  0
   14.4958  -14.8667    0.0000 O   0  0
   13.7791  -14.4666    0.0000 N   0  0
   11.3496  -13.1778    0.0000 P   0  0
   10.9291  -13.8875    0.0000 N   0  0
   11.7541  -13.8875    0.0000 O   0  0
    7.0267  -11.1263    0.0000 P   0  0
    6.4375  -10.5375    0.0000 N   0  0
    7.4333  -10.4166    0.0000 O   0  0
    5.4631  -13.7988    0.0000 P   0  0
    6.2875  -13.8041    0.0000 N   0  0
    5.6750  -14.6000    0.0000 O   0  0
   -0.5667  -19.4875    0.0000 N   0  0
    0.2334  -16.4241    0.0000 O   0  0
150149  1  6
150151  1  0
151152  1  1
151153  1  0
153154  1  0
154155  1  0
150155  1  0
154156  1  6
156157  1  0
157158  2  0
158159  1  0
159160  1  0
160161  2  0
160162  1  0
162163  1  0
163164  1  0
163165  2  0
165166  1  0
159166  2  0
156166  1  0
  3  4  1  0
  4  5  1  1
  4  6  1  0
 74 73  1  6
 74 75  1  0
 75 76  1  1
 75 77  1  0
 77 78  1  0
 78 79  1  0
 74 79  1  0
 78 80  1  6
 80 81  1  0
 81 82  2  0
 82 83  1  0
 83 84  1  0
 84 85  2  0
 84 86  1  0
167168  1  0
169168  1  6
169170  1  0
170171  1  1
172173  1  0
173174  1  0
169174  1  0
173175  1  6
175176  1  0
176177  2  0
176178  1  0
178179  1  0
179180  2  0
179181  1  0
181182  2  0
175182  1  0
 86 87  1  0
171183  1  0
183148  1  0
 87 88  1  0
183184  1  0
 87 89  2  0
183185  2  0
 89 90  1  0
 83 90  2  0
 80 90  1  0
  6  7  1  0
 76 91  1  0
 91 56  1  0
  7  8  1  0
 91 92  2  0
  3  8  1  0
 91 93  1  0
  7  9  1  6
 73 94  1  0
  9 10  1  0
 10 11  2  0
 11 12  1  0
 12 13  1  0
 39 40  1  0
 41 40  1  6
 41 42  1  0
186187  1  0
188187  1  6
188189  1  0
189190  1  1
189191  1  0
191192  1  0
192193  1  0
188193  1  0
192194  1  6
194195  1  0
195196  2  0
196197  1  0
197198  1  0
198199  2  0
198200  1  0
200201  1  0
201202  1  0
201203  2  0
203204  1  0
197204  2  0
194204  1  0
 42 43  1  1
 42 44  1  0
 44 45  1  0
 45 46  1  0
 41 46  1  0
 45 47  1  6
 47 48  1  0
 48 49  2  0
 48 50  1  0
 50 51  1  0
 51 52  2  0
 51 53  1  0
 95 96  1  0
 97 96  1  6
 97 98  1  0
 98 99  1  1
 98100  1  0
100101  1  0
101102  1  0
205206  1  0
207206  1  6
207208  1  0
208209  1  0
209210  1  1
209211  1  0
211212  1  0
207212  1  0
211213  1  6
213214  1  0
214215  2  0
215216  1  0
216217  1  0
217218  2  0
217219  1  0
219220  1  0
220221  1  0
220222  2  0
222223  1  0
216223  2  0
213223  1  0
 97102  1  0
101103  1  6
103104  1  0
104105  2  0
105106  1  0
106107  1  0
107108  2  0
107109  1  0
109110  1  0
110111  1  0
110112  2  0
112113  1  0
106113  2  0
103113  1  0
 53 54  1  0
 53 55  2  0
 47 55  1  0
224225  1  0
226225  1  6
226227  1  0
227228  1  1
227229  1  0
229230  1  0
230231  1  0
226231  1  0
230232  1  6
232233  1  0
233234  2  0
233235  1  0
235236  1  0
236237  2  0
236238  1  0
238239  1  0
238240  2  0
232240  1  0
 13 14  2  0
 13 15  1  0
 15 16  1  0
 16 17  1  0
 16 18  2  0
 20 21  1  0
 22 21  1  6
 22 23  1  0
 23 24  1  1
 23 25  1  0
 25 26  1  0
 26 27  1  0
 22 27  1  0
 26 28  1  6
114115  1  0
116115  1  6
116117  1  0
241242  1  0
243242  1  6
243244  1  0
244245  1  1
244246  1  0
246247  1  0
247248  1  0
243248  1  0
247249  1  6
249250  1  0
250251  2  0
250252  1  0
252253  1  0
253254  2  0
253255  1  0
255256  1  0
255257  2  0
249257  1  0
117118  1  1
117119  1  0
119120  1  0
120121  1  0
116121  1  0
120122  1  6
122123  1  0
123124  2  0
123125  1  0
125126  1  0
126127  2  0
126128  1  0
128129  1  0
128130  2  0
122130  1  0
 28 29  1  0
 29 30  2  0
131132  2  0
259258  1  6
259260  1  0
260261  1  1
260262  1  0
262263  1  0
263264  1  0
259264  1  0
263265  1  6
265266  1  0
266267  2  0
267268  1  0
268269  1  0
269270  2  0
269271  1  0
271272  1  0
272273  1  0
272274  2  0
274275  1  0
268275  2  0
265275  1  0
131114  1  0
258276  1  0
 30 31  1  0
118133  1  0
133 95  1  0
 56 57  1  0
133134  1  0
 58 57  1  6
133135  2  0
 58 59  1  0
 99136  1  0
136 94  1  0
 59 60  1  1
136137  2  0
 59 61  1  0
136138  1  0
 61 62  1  0
 60139  1  0
139 39  1  0
 62 63  1  0
278277  1  6
278279  1  0
279280  1  1
279281  1  0
281282  1  0
282283  1  0
278283  1  0
282284  1  6
284285  1  0
285286  2  0
286287  1  0
287288  1  0
288289  2  0
288290  1  0
290291  1  0
291292  1  0
291293  2  0
293294  1  0
287294  2  0
284294  1  0
139140  2  0
280295  1  0
295276  1  0
 58 63  1  0
277296  1  0
139141  1  0
295297  2  0
 62 64  1  6
295298  1  0
 43142  1  0
261299  1  0
299241  1  0
142 20  1  0
299300  1  0
 64 65  1  0
299301  2  0
142143  1  0
245302  1  0
302224  1  0
 65 66  2  0
302303  2  0
142144  2  0
302304  1  0
 65 67  1  0
228305  1  0
305205  1  0
 24145  1  0
305306  1  0
145  1  1  0
305307  2  0
 67 68  1  0
210308  1  0
308186  1  0
145146  1  0
308309  1  0
 68 69  2  0
308310  2  0
145147  2  0
 68 70  1  0
 70 71  1  0
 70 72  2  0
 64 72  1  0
 31 32  1  0
 32 33  2  0
 32 34  1  0
 34 35  1  0
 35 36  1  0
 35 37  2  0
 37 38  1  0
 31 38  2  0
 28 38  1  0
 18 19  1  0
 12 19  2  0
  9 19  1  0
190311  1  0
  1  2  1  0
311312  1  0
  3  2  1  6
311313  2  0
167311  1  0
131152  1  0
148149  1  0
131314  1  0
172315  1  1
172170  1  0
M  END