
          11280715012D 1   1.00000     0.00000     0

 34 38  0     0  0            999 V2000
    3.5042   -3.1917    0.0000 N   0  0  3  0  0  0           0  0  0
    2.1417   -2.7542    0.0000 N   0  0  3  0  0  0           0  0  0
    2.9500   -2.5792    0.0000 C   0  0  0  0  0  0           0  0  0
    2.4417   -4.1500    0.0000 N   0  0  0  0  0  0           0  0  0
    1.8917   -3.5417    0.0000 C   0  0  0  0  0  0           0  0  0
    3.2417   -3.9750    0.0000 C   0  0  0  0  0  0           0  0  0
    7.8250   -1.6000    0.0000 C   0  0  0  0  0  0           0  0  0
    1.0667   -3.5417    0.0000 S   0  0  0  0  0  0           0  0  0
    4.3167   -3.0292    0.0000 C   0  0  0  0  0  0           0  0  0
    7.0125   -1.7667    0.0000 C   0  0  0  0  0  0           0  0  0
    1.4750   -2.2750    0.0000 C   0  0  0  0  0  0           0  0  0
    5.3917   -2.0875    0.0000 N   0  0  3  0  0  0           0  0  0
    3.2000   -1.7917    0.0000 O   0  0  0  0  0  0           0  0  0
    0.8042   -2.7667    0.0000 C   0  0  0  0  0  0           0  0  0
    3.7917   -4.5917    0.0000 O   0  0  0  0  0  0           0  0  0
    8.3667   -2.2167    0.0000 C   0  0  0  0  0  0           0  0  0
    8.0875   -0.8167    0.0000 C   0  0  0  0  0  0           0  0  0
    6.4667   -1.1417    0.0000 C   0  0  0  0  0  0           0  0  0
    6.7417   -2.5500    0.0000 C   0  0  0  0  0  0           0  0  0
    4.5875   -2.2500    0.0000 C   0  0  0  0  0  0           0  0  0
    8.8917   -0.6542    0.0000 C   0  0  0  0  0  0           0  0  0
    8.1042   -2.9917    0.0000 C   0  0  0  0  0  0           0  0  0
    9.1750   -2.0542    0.0000 C   0  0  0  0  0  0           0  0  0
    7.5417   -0.2042    0.0000 C   0  0  0  0  0  0           0  0  0
    5.6625   -1.3042    0.0000 C   0  0  0  0  0  0           0  0  0
    5.9375   -2.7042    0.0000 C   0  0  0  0  0  0           0  0  0
    8.6042    0.7458    0.0000 C   0  0  0  0  0  0           0  0  0
    9.4500   -3.4500    0.0000 C   0  0  0  0  0  0           0  0  0
    7.8042    0.5750    0.0000 C   0  0  0  0  0  0           0  0  0
    9.7167   -2.6750    0.0000 C   0  0  0  0  0  0           0  0  0
    9.1542    0.1208    0.0000 C   0  0  0  0  0  0           0  0  0
    8.6417   -3.6167    0.0000 C   0  0  0  0  0  0           0  0  0
   10.0000   -4.0667    0.0000 F   0  0  0  0  0  0           0  0  0
    8.8667    1.5333    0.0000 F   0  0  0  0  0  0           0  0  0
  2  3  1  0     0  0
  3  1  1  0     0  0
  4  6  1  0     0  0
  5  4  2  0     0  0
  6  1  1  0     0  0
  7 10  2  0     0  0
  8  5  1  0     0  0
  9  1  1  0     0  0
 10 19  1  0     0  0
 11  2  1  0     0  0
 12 20  1  0     0  0
 13  3  2  0     0  0
 14 11  2  0     0  0
 15  6  2  0     0  0
 16  7  1  0     0  0
 17  7  1  0     0  0
 18 25  1  0     0  0
 19 26  1  0     0  0
 20  9  1  0     0  0
 21 17  2  0     0  0
 22 16  2  0     0  0
 23 16  1  0     0  0
 24 17  1  0     0  0
 25 12  1  0     0  0
 26 12  1  0     0  0
 27 29  1  0     0  0
 28 30  1  0     0  0
 29 24  2  0     0  0
 30 23  2  0     0  0
 31 21  1  0     0  0
 32 22  1  0     0  0
 33 28  1  0     0  0
 34 27  1  0     0  0
  5  2  1  0     0  0
 14  8  1  0     0  0
 10 18  1  0     0  0
 31 27  2  0     0  0
 32 28  2  0     0  0
M  END