
  SciTegic01161211252D

 32 35  0  0  0  0            999 V2000
    3.6396   -8.5561    0.0000 C   0  0
    0.0694   -8.9768    0.0000 C   0  0
    0.0682   -9.8040    0.0000 C   0  0
    0.7829  -10.2168    0.0000 C   0  0
    1.4991   -9.8035    0.0000 C   0  0
    1.4962   -8.9732    0.0000 C   0  0
    0.7811   -8.5642    0.0000 C   0  0
   -0.6463  -10.2158    0.0000 N   0  0
   -1.3604   -9.8029    0.0000 C   0  0
   -2.0750  -10.2147    0.0000 N   0  0
   -1.3597   -8.9781    0.0000 O   0  0
   -2.7890   -9.8013    0.0000 C   0  0
   -3.0627   -9.0221    0.0000 C   0  0
   -3.8882   -9.0378    0.0000 C   0  0
   -4.1271   -9.8284    0.0000 O   0  0
   -3.4483  -10.2987    0.0000 N   0  0
   -4.3865   -8.3803    0.0000 C   0  0
   -4.0110   -7.6460    0.0000 C   0  0
   -5.2102   -8.4224    0.0000 C   0  0
   -4.9123   -7.7349    0.0000 C   0  0
    2.2090   -8.5581    0.0000 N   0  0
    2.9249   -8.9678    0.0000 C   0  0
    2.9201   -9.7892    0.0000 O   0  0
    4.3536   -8.9711    0.0000 N   0  0
    5.0678   -8.5602    0.0000 C   0  0
    3.6389   -7.7349    0.0000 C   0  0
    4.3502   -7.3215    0.0000 C   0  0
    5.0673   -7.7359    0.0000 C   0  0
    5.7826   -7.3221    0.0000 C   0  0
    5.7819   -6.4940    0.0000 C   0  0
    5.0600   -6.0817    0.0000 C   0  0
    4.3477   -6.4978    0.0000 C   0  0
 16 12  2  0
  4  5  2  0
 14 17  1  0
  8  9  1  0
 17 18  1  0
 17 19  1  0
  9 10  1  0
 17 20  1  0
  5  6  1  0
  6 21  1  0
  9 11  2  0
 21 22  1  0
  3  4  1  0
 22 23  2  0
 22  1  1  0
 10 12  1  0
  1 24  2  0
 13 14  2  0
 24 25  1  0
 25 28  2  0
  6  7  2  0
 27 26  2  0
 26  1  1  0
  7  2  1  0
  2  3  2  0
 27 28  1  0
  3  8  1  0
 28 29  1  0
 12 13  1  0
 29 30  2  0
 14 15  1  0
 30 31  1  0
 15 16  1  0
 31 32  2  0
 32 27  1  0
M  END