
  SciTegic02271217242D

 18 19  0  0  0  0            999 V2000
   11.1093  -12.6011    0.0000 O   0  0
   11.5260  -13.3179    0.0000 S   0  0
   11.9384  -12.5986    0.0000 O   0  0
   10.8143  -13.7350    0.0000 C   0  0
   12.2433  -13.7296    0.0000 N   0  0
   12.2465  -14.5547    0.0000 C   0  0
   11.5343  -14.9668    0.0000 C   0  0
   11.5371  -15.7911    0.0000 N   0  0
   12.2537  -16.2017    0.0000 C   0  0
   12.9690  -15.7821    0.0000 C   0  0
   12.9627  -14.9591    0.0000 C   0  0
   13.6866  -16.1894    0.0000 C   0  0
   13.6878  -17.0151    0.0000 C   0  0
   14.4045  -17.4223    0.0000 N   0  0
   14.3911  -15.7717    0.0000 C   0  0
   15.1068  -16.1721    0.0000 N   0  0
   15.1154  -17.0038    0.0000 C   0  0
   15.8338  -17.4096    0.0000 N   0  0
  2  5  1  0
  9 10  1  0
  3  2  2  0
 10 11  2  0
 11  6  1  0
  5  6  1  0
 10 12  1  0
 12 13  2  0
  6  7  2  0
 13 14  1  0
 14 17  2  0
  4  2  1  0
 16 15  2  0
 15 12  1  0
 16 17  1  0
  7  8  1  0
  2  1  2  0
  8  9  2  0
 17 18  1  0
M  END