
  SciTegic06051313522D

 21 23  0  0  0  0            999 V2000
    3.0663  -31.5925    0.0000 C   0  0
    3.7759  -31.1830    0.0000 C   0  0
    3.7731  -30.3604    0.0000 C   0  0
    3.0645  -29.9551    0.0000 C   0  0
    4.4793  -29.9491    0.0000 N   0  0
    5.1885  -30.3551    0.0000 C   0  0
    2.3582  -31.1835    0.0000 C   0  0
    2.3594  -30.3625    0.0000 C   0  0
    1.5789  -30.1075    0.0000 N   0  0
    1.0953  -30.7711    0.0000 O   0  0
    1.5769  -31.4360    0.0000 N   0  0
    3.0645  -29.1341    0.0000 N   0  3
    2.3559  -28.7271    0.0000 O   0  0
    3.7713  -28.7240    0.0000 O   0  5
    5.1882  -31.1699    0.0000 C   0  0
    5.8967  -31.5758    0.0000 C   0  0
    6.6038  -31.1644    0.0000 C   0  0
    6.5981  -30.3430    0.0000 C   0  0
    5.8891  -29.9409    0.0000 C   0  0
    4.4812  -31.5796    0.0000 F   0  0
    5.8993  -32.3929    0.0000 Cl  0  0
  7  1  1  0
  1  2  2  0
  2  3  1  0
  3  4  2  0
  4  8  1  0
  3  5  1  0
  5  6  1  0
  7  8  1  0
  8  9  2  0
  9 10  1  0
 10 11  1  0
 11  7  2  0
 12 13  2  0
 12 14  1  0
  4 12  1  0
  6 15  2  0
 15 16  1  0
 16 17  2  0
 17 18  1  0
 18 19  2  0
 19  6  1  0
 15 20  1  0
 16 21  1  0
M  CHG  2  12   1  14  -1
M  END