
  SciTegic02271515092D

 35 37  0  0  0  0            999 V2000
    7.2147  -15.0099    0.0000 O   0  0
    5.7861  -15.8431    0.0000 O   0  0
    4.3498  -15.0219    0.0000 N   0  0
    4.3442  -13.3711    0.0000 O   0  0
    6.4928  -13.7721    0.0000 O   0  0
    6.4969  -14.6040    0.0000 C   0  0  2  0  0  0
    5.7825  -15.0205    0.0000 C   0  0  1  0  0  0
    5.0640  -14.6053    0.0000 C   0  0  2  0  0  0
    5.0606  -13.7828    0.0000 C   0  0  2  0  0  0
    5.7749  -13.3661    0.0000 C   0  0  1  0  0  0
    5.7728  -12.5379    0.0000 C   0  0
   10.0765  -13.3561    0.0000 O   0  0
   10.0765  -15.0098    0.0000 N   0  0
    8.6436  -15.8369    0.0000 O   0  0
    8.6435  -13.3561    0.0000 O   0  0
    9.3641  -13.7716    0.0000 C   0  0
    9.3641  -14.5985    0.0000 C   0  0  1  0  0  0
    8.6435  -15.0099    0.0000 C   0  0  2  0  0  0
    7.9311  -14.5986    0.0000 C   0  0  1  0  0  0
    7.9311  -13.7717    0.0000 C   0  0  1  0  0  0
    7.2147  -13.3562    0.0000 C   0  0
    7.2163  -12.5317    0.0000 O   0  0
    6.4858  -12.1240    0.0000 O   0  0
    7.9235  -15.4223    0.0000 H   0  0
    3.6339  -14.6130    0.0000 C   0  0
    2.9219  -15.0283    0.0000 C   0  0
    3.6303  -13.7885    0.0000 O   0  0
    2.2073  -14.6181    0.0000 C   0  0
    1.4957  -15.0328    0.0000 C   0  0
    1.4990  -15.8581    0.0000 C   0  0
    2.2198  -16.2669    0.0000 C   0  0
    2.9284  -15.8498    0.0000 C   0  0
   10.0764  -15.8343    0.0000 C   0  0
   10.7903  -16.2466    0.0000 C   0  0
    9.3624  -16.2465    0.0000 O   0  0
 10  5  1  0
  5  6  1  0
  6  7  1  0
  7  8  1  0
  8  9  1  0
  9 10  1  0
 10 11  1  1
  6  1  1  1
  7  2  1  6
  8  3  1  1
  9  4  1  1
 20 15  1  0
 15 16  1  0
 16 17  1  0
 17 18  1  0
 18 19  1  0
 19 20  1  0
 20 21  1  1
 16 12  1  0
 17 13  1  6
 18 14  1  1
 19  1  1  0
 21 22  1  0
 11 23  1  0
 19 24  1  1
  3 25  1  0
 25 26  1  0
 25 27  2  0
 26 28  2  0
 28 29  1  0
 29 30  2  0
 30 31  1  0
 31 32  2  0
 32 26  1  0
 13 33  1  0
 33 34  1  0
 33 35  2  0
M  END