
  SciTegic03161212222D

 38 42  0  0  0  0            999 V2000
  -23.4536    0.2357    0.0000 C   0  0
  -24.1681   -0.1768    0.0000 C   0  0
  -24.1681   -1.0018    0.0000 C   0  0
  -23.4536   -1.4143    0.0000 C   0  0
  -22.7391   -1.0018    0.0000 C   0  0
  -22.7391   -0.1768    0.0000 C   0  0
  -23.4536   -2.2393    0.0000 C   0  0
  -24.1680   -2.6518    0.0000 N   0  0
  -24.8825   -2.2393    0.0000 C   0  0
  -25.5970   -2.6518    0.0000 C   0  0
  -25.5970   -3.4768    0.0000 N   0  0
  -24.8825   -3.8893    0.0000 C   0  0
  -24.1681   -3.4768    0.0000 C   0  0
  -26.3115   -3.8893    0.0000 C   0  0
  -23.2821    1.0426    0.0000 N   0  0
  -22.4616    1.1289    0.0000 C   0  0
  -22.1260    0.3753    0.0000 N   0  0
  -21.3190    0.2038    0.0000 C   0  0
  -20.9834   -0.5498    0.0000 C   0  0
  -20.1630   -0.4635    0.0000 C   0  0
  -19.9915    0.3435    0.0000 C   0  0
  -20.7060    0.7559    0.0000 S   0  0
  -19.2379    0.6791    0.0000 C   0  0
  -19.1517    1.4995    0.0000 O   0  0
  -18.5704    0.1942    0.0000 N   0  0
  -19.6109   -1.0766    0.0000 O   0  0
  -19.8244   -1.8735    0.0000 C   0  0  1  0  0  0
  -19.2411   -2.4568    0.0000 C   0  0
  -20.6213   -2.0870    0.0000 C   0  0
  -19.4546   -3.2538    0.0000 C   0  0
  -18.8713   -3.8371    0.0000 C   0  0
  -18.0744   -3.6236    0.0000 C   0  0
  -17.8608   -2.8267    0.0000 C   0  0
  -18.4442   -2.2433    0.0000 C   0  0
  -18.2306   -1.4464    0.0000 C   0  0
  -17.4056   -1.4464    0.0000 F   0  0
  -18.7329   -0.7919    0.0000 F   0  0
  -18.0171   -0.6495    0.0000 F   0  0
  1  2  1  0
  2  3  2  0
  3  4  1  0
  4  5  2  0
  5  6  1  0
  4  7  1  0
  7  8  1  0
  8  9  1  0
 13  8  1  0
  9 10  1  0
 10 11  1  0
 11 12  1  0
 12 13  1  0
 11 14  1  0
  1 15  1  0
  1  6  2  0
  6 17  1  0
 15 16  2  0
 16 17  1  0
 17 18  1  0
 18 19  2  0
 18 22  1  0
 19 20  1  0
 20 21  2  0
 21 22  1  0
 21 23  1  0
 23 24  2  0
 23 25  1  0
 20 26  1  0
 26 27  1  0
 27 28  1  0
 27 29  1  1
 28 30  1  0
 28 34  2  0
 30 31  2  0
 31 32  1  0
 32 33  2  0
 33 34  1  0
 34 35  1  0
 35 36  1  0
 35 37  1  0
 35 38  1  0
M  END