
  SciTegic11061219412D

 15 15  0  0  0  0            999 V2000
    4.2129   -6.8935    0.0000 C   0  0
    1.3445   -6.0667    0.0000 C   0  0
    2.0585   -6.4801    0.0000 N   0  0
    3.4947   -6.4801    0.0000 C   0  0
    5.6409   -6.8935    0.0000 N   0  0
    2.7808   -6.0667    0.0000 C   0  0  2  0  0  0
    1.3445   -5.2400    0.0000 O   0  0
    4.9269   -7.3068    0.0000 C   0  0
    2.0585   -7.3068    0.0000 C   0  0
    0.6305   -6.4801    0.0000 C   0  0
    6.3924   -7.2191    0.0000 C   0  0
    5.7243   -6.0667    0.0000 C   0  0
    2.7808   -5.2400    0.0000 C   0  0
    6.5302   -5.8914    0.0000 C   0  0
    6.9436   -6.6054    0.0000 C   0  0
  2  3  1  0
  3  6  1  0
  4  1  3  0
  5  8  1  0
  6  4  1  0
  7  2  2  0
  8  1  1  0
  9  3  1  0
 10  2  1  0
 11  5  1  0
 12  5  1  0
  6 13  1  1
 14 12  1  0
 15 11  1  0
 14 15  1  0
M  END