
  SciTegic01161211242D

 18 18  0  0  0  0            999 V2000
    2.5973   -1.5031    0.0000 C   0  0  2  0  0  0
    2.5951   -3.0039    0.0000 C   0  0  2  0  0  0
    1.2990   -0.7500    0.0000 C   0  0
    3.8933   -3.7570    0.0000 C   0  0
    1.5548   -3.6021    0.0000 O   0  0
    3.8999   -0.7576    0.0000 C   0  0
    8.9915   -2.2535    0.0000 Cl  0  0
    4.9372   -1.3609    0.0000 N   0  0
    1.2990    0.7500    0.0000 C   0  0
    0.0000   -1.5000    0.0000 C   0  0
    3.8934   -5.2570    0.0000 C   0  0
    5.1925   -3.0070    0.0000 C   0  0
    6.4915   -3.7571    0.0000 C   0  0
    5.1924   -6.0070    0.0000 C   0  0
   -1.2990   -0.7500    0.0000 C   0  0
    0.0000    1.5000    0.0000 C   0  0
   -1.2990    0.7500    0.0000 C   0  0
    6.4915   -5.2571    0.0000 C   0  0
  1  2  1  0
  1  3  1  6
  2  4  1  0
  2  5  1  6
  1  6  1  0
  6  8  1  0
  3  9  1  0
  3 10  2  0
  4 11  1  0
  4 12  2  0
 12 13  1  0
 11 14  2  0
 10 15  1  0
  9 16  2  0
 15 17  2  0
 16 17  1  0
 13 18  2  0
 14 18  1  0
M  END