
  SciTegic12091614052D

 26 28  0  0  0  0            999 V2000
    3.6753   -2.8147    0.0000 C   0  0
    1.2781   -3.8165    0.0000 C   0  0
    4.2537   -4.1987    0.0000 C   0  0
    2.5889    0.0182    0.0000 C   0  0
    3.3556    2.8737    0.0000 O   0  0
    1.8565   -5.2005    0.0000 C   0  0
   -1.0028    1.5132    0.0000 C   0  0
   -2.3155    0.7475    0.0000 C   0  0
    1.3808    3.5211    0.0000 C   0  0
   -1.0028   -1.5132    0.0000 C   0  0
    2.1812    2.6271    0.0000 C   0  0
   -4.9153   -0.7255    0.0000 C   0  0
    0.2917   -0.7475    0.0000 C   0  0
   -6.2216   -1.4644    0.0000 C   0  0
   -2.3155   -0.7475    0.0000 C   0  0
   -7.2559   -0.8558    0.0000 C   0  0
    1.7138    1.2033    0.0000 C   0  0
   -3.6217   -1.4865    0.0000 O   0  0
    0.2917    0.7475    0.0000 N   0  0
    1.7138   -1.2033    0.0000 C   0  0
    3.3443   -5.3916    0.0000 C   0  0
    2.1852   -2.6281    0.0000 C   0  0
   -0.2103   -3.6235    0.0000 S   0  0
   -0.9387   -4.5771    0.0000 C   0  0
   -0.6723   -2.5160    0.0000 O   0  0
   -1.4004   -3.4697    0.0000 O   0  0
 15 10  2  0
 17 11  1  0
 11  5  2  0
 13 19  1  0
 13 10  1  0
 15  8  1  0
 21  6  1  0
 14 16  1  0
 18 12  1  0
  3 21  2  0
  8  7  2  0
  1  3  1  0
  7 19  1  0
  2 22  1  0
 11  9  1  0
 15 18  1  0
  4 20  1  0
  6  2  2  0
 12 14  1  0
 17  4  2  0
 22  1  2  0
 19 17  1  0
 20 22  1  0
 20 13  2  0
  2 23  1  0
 23 24  1  0
 23 25  2  0
 23 26  2  0
M  END