
          11280715342D 1   1.00000     0.00000     0

 34 37  0     1  0            999 V2000
    6.6917   -1.4875    0.0000 C   0  0  3  0  0  0           0  0  0
    6.2792   -0.2125    0.0000 C   0  0  0  0  0  0           0  0  0
    7.1125   -0.2167    0.0000 C   0  0  0  0  0  0           0  0  0
    6.0292   -1.0000    0.0000 C   0  0  0  0  0  0           0  0  0
    7.3625   -1.0000    0.0000 C   0  0  0  0  0  0           0  0  0
    5.9792   -3.5500    0.0000 C   0  0  0  0  0  0           0  0  0
    5.2667   -3.9625    0.0000 N   0  0  0  0  0  0           0  0  0
    5.2667   -4.7875    0.0000 C   0  0  1  0  0  0           0  0  0
    5.9792   -5.2000    0.0000 C   0  0  0  0  0  0           0  0  0
    6.6917   -2.3125    0.0000 C   0  0  0  0  0  0           0  0  0
    5.9792   -2.7250    0.0000 O   0  0  0  0  0  0           0  0  0
    4.5542   -5.2000    0.0000 C   0  0  0  0  0  0           0  0  0
    6.7000   -3.9625    0.0000 O   0  0  0  0  0  0           0  0  0
    5.9875   -6.0250    0.0000 O   0  0  0  0  0  0           0  0  0
    1.7000   -3.5542    0.0000 O   0  0  0  0  0  0           0  0  0
    1.7000   -2.7292    0.0000 C   0  0  3  0  0  0           0  0  0
    3.8417   -4.7875    0.0000 C   0  0  0  0  0  0           0  0  0
    2.4167   -3.9667    0.0000 C   0  0  0  0  0  0           0  0  0
    6.7000   -4.7875    0.0000 O   0  0  0  0  0  0           0  0  0
    3.8417   -3.9667    0.0000 C   0  0  0  0  0  0           0  0  0
    3.1292   -5.2042    0.0000 C   0  0  0  0  0  0           0  0  0
    2.4167   -4.7917    0.0000 C   0  0  0  0  0  0           0  0  0
    3.1292   -3.5542    0.0000 C   0  0  0  0  0  0           0  0  0
    5.7375    0.4000    0.0000 C   0  0  0  0  0  0           0  0  0
    7.6542    0.3958    0.0000 C   0  0  0  0  0  0           0  0  0
    8.1625   -1.1667    0.0000 C   0  0  0  0  0  0           0  0  0
    5.2125   -1.1667    0.0000 C   0  0  0  0  0  0           0  0  0
    0.9792   -2.3167    0.0000 C   0  0  0  0  0  0           0  0  0
    2.4125   -2.3167    0.0000 C   0  0  0  0  0  0           0  0  0
    1.1167   -3.3167    0.0000 C   0  0  0  0  0  0           0  0  0
    8.7167   -0.5625    0.0000 C   0  0  0  0  0  0           0  0  0
    8.4625    0.2208    0.0000 C   0  0  0  0  0  0           0  0  0
    4.9292    0.2333    0.0000 C   0  0  0  0  0  0           0  0  0
    4.6667   -0.5500    0.0000 C   0  0  0  0  0  0           0  0  0
  2  4  1  0     0  0
  3  5  2  0     0  0
  4  1  1  0     0  0
  5  1  1  0     0  0
  6 11  1  0     0  0
  7  6  1  0     0  0
  8  7  1  1     0  0
  9  8  1  0     0  0
 10  1  1  0     0  0
 11 10  1  0     0  0
 12  8  1  0     0  0
 13  6  2  0     0  0
 14  9  2  0     0  0
 15 18  1  0     0  0
 16 15  1  0     0  0
 17 12  1  0     0  0
 18 22  1  0     0  0
 19  9  1  0     0  0
 20 17  2  0     0  0
 21 17  1  0     0  0
 22 21  2  0     0  0
 23 20  1  0     0  0
 24  2  2  0     0  0
 25  3  1  0     0  0
 26  5  1  0     0  0
 27  4  2  0     0  0
 28 16  1  0     0  0
 29 16  1  0     0  0
 30 16  1  0     0  0
 31 26  2  0     0  0
 32 31  1  0     0  0
 33 34  2  0     0  0
 34 27  1  0     0  0
  3  2  1  0     0  0
 32 25  2  0     0  0
 24 33  1  0     0  0
 23 18  2  0     0  0
M  END