
          11280716002D 1   1.00000     0.00000     0

 73 74  0     1  0            999 V2000
   -4.3000   -0.1167    0.0000 C   0  0  0  0  0  0           0  0  0
   -2.8958   -0.3875    0.0000 C   0  0  0  0  0  0           0  0  0
   -3.8375   -0.3875    0.0000 N   0  0  0  0  0  0           0  0  0
    0.3542    2.7708    0.0000 P   0  0  3  0  0  0           0  0  0
    1.3542   -0.1542    0.0000 C   0  0  0  0  0  0           0  0  0
   -0.0583   -0.4042    0.0000 C   0  0  0  0  0  0           0  0  0
   -1.4708   -0.1167    0.0000 C   0  0  0  0  0  0           0  0  0
    0.4167   -0.1417    0.0000 N   0  0  0  0  0  0           0  0  0
   -3.3625   -0.1167    0.0000 C   0  0  1  0  0  0           0  0  0
   -2.4208   -0.1167    0.0000 N   0  0  0  0  0  0           0  0  0
   -1.0000   -0.3917    0.0000 N   0  0  0  0  0  0           0  0  0
    1.8167   -0.4375    0.0000 N   0  0  0  0  0  0           0  0  0
    0.8792   -0.4167    0.0000 C   0  0  1  0  0  0           0  0  0
    0.8667   -0.9917    0.0000 C   0  0  0  0  0  0           0  0  0
   -4.7833   -0.3875    0.0000 C   0  0  2  0  0  0           0  0  0
    2.7542   -0.4500    0.0000 C   0  0  0  0  0  0           0  0  0
   -0.5208   -0.1250    0.0000 C   0  0  1  0  0  0           0  0  0
    2.2917   -0.1750    0.0000 C   0  0  2  0  0  0           0  0  0
    5.5750   -0.4917    0.0000 C   0  0  0  0  0  0           0  0  0
    4.6292   -0.4792    0.0000 N   0  0  0  0  0  0           0  0  0
    1.1292   -1.4875    0.0000 C   0  0  0  0  0  0           0  0  0
   -1.9458   -0.3875    0.0000 C   0  0  2  0  0  0           0  0  0
   -4.7833   -0.9292    0.0000 C   0  0  3  0  0  0           0  0  0
    4.1667   -0.2000    0.0000 C   0  0  0  0  0  0           0  0  0
    3.2292   -0.1875    0.0000 N   0  0  0  0  0  0           0  0  0
    5.1042   -0.2167    0.0000 C   0  0  1  0  0  0           0  0  0
    0.6125    2.3000    0.0000 O   0  0  0  0  0  0           0  0  0
    5.6042    1.1333    0.0000 C   0  0  0  0  0  0           0  0  0
   -0.1208    2.5083    0.0000 O   0  0  0  0  0  0           0  0  0
   -4.3000    0.4250    0.0000 O   0  0  0  0  0  0           0  0  0
   -2.8958   -0.9292    0.0000 O   0  0  0  0  0  0           0  0  0
   -0.0625   -0.9500    0.0000 O   0  0  0  0  0  0           0  0  0
    1.3667    0.3833    0.0000 O   0  0  0  0  0  0           0  0  0
   -1.4708    0.4333    0.0000 O   0  0  0  0  0  0           0  0  0
   -0.5125    0.4208    0.0000 C   0  0  0  0  0  0           0  0  0
    2.7417   -1.0000    0.0000 O   0  0  0  0  0  0           0  0  0
    5.5625   -1.0375    0.0000 O   0  0  0  0  0  0           0  0  0
    2.3042    0.3708    0.0000 C   0  0  0  0  0  0           0  0  0
    1.7000   -1.5167    0.0000 O   0  0  0  0  0  0           0  0  0
    4.1792    0.3458    0.0000 O   0  0  0  0  0  0           0  0  0
    6.0792    1.3958    0.0000 O   0  0  0  0  0  0           0  0  0
   -5.2458   -1.2042    0.0000 C   0  0  0  0  0  0           0  0  0
    5.1167    0.3250    0.0000 C   0  0  0  0  0  0           0  0  0
    0.8292    3.0250    0.0000 O   0  0  0  0  0  0           0  0  0
    0.0875    3.2458    0.0000 O   0  0  0  0  0  0           0  0  0
    3.7000   -0.4667    0.0000 C   0  0  0  0  0  0           0  0  0
   -5.2458   -0.1167    0.0000 N   0  0  0  0  0  0           0  0  0
   -3.3625    0.4250    0.0000 C   0  0  3  0  0  0           0  0  0
    0.8292   -1.9792    0.0000 N   0  0  0  0  0  0           0  0  0
    5.5917    0.5875    0.0000 C   0  0  0  0  0  0           0  0  0
    0.3375    1.8375    0.0000 C   0  0  0  0  0  0           0  0  0
   -0.2208    0.9083    0.0000 C   0  0  0  0  0  0           0  0  0
    6.0542   -0.2292    0.0000 O   0  0  0  0  0  0           0  0  0
   -1.9458   -0.9375    0.0000 C   0  0  0  0  0  0           0  0  0
    5.1375    1.4083    0.0000 O   0  0  0  0  0  0           0  0  0
   -1.4833   -1.7625    0.0000 S   0  0  0  0  0  0           0  0  0
    0.3167    0.8958    0.0000 C   0  0  0  0  0  0           0  0  0
   -0.4833    1.3833    0.0000 C   0  0  0  0  0  0           0  0  0
   -0.2083    1.8458    0.0000 C   0  0  0  0  0  0           0  0  0
    0.5917    1.3625    0.0000 C   0  0  0  0  0  0           0  0  0
   -4.3000   -1.2042    0.0000 C   0  0  0  0  0  0           0  0  0
    2.5792    0.8458    0.0000 C   0  0  3  0  0  0           0  0  0
   -1.4833   -1.2167    0.0000 C   0  0  0  0  0  0           0  0  0
   -5.7208   -0.9292    0.0000 C   0  0  0  0  0  0           0  0  0
   -5.2458   -1.7417    0.0000 C   0  0  0  0  0  0           0  0  0
   -1.0083   -2.0417    0.0000 C   0  0  0  0  0  0           0  0  0
   -2.8958    0.7000    0.0000 C   0  0  0  0  0  0           0  0  0
   -3.8375    0.7000    0.0000 C   0  0  0  0  0  0           0  0  0
    3.1292    0.8458    0.0000 C   0  0  0  0  0  0           0  0  0
    2.3125    1.3208    0.0000 C   0  0  0  0  0  0           0  0  0
   -6.1917   -1.2042    0.0000 C   0  0  0  0  0  0           0  0  0
   -5.7208   -2.0250    0.0000 C   0  0  0  0  0  0           0  0  0
   -6.1917   -1.7417    0.0000 C   0  0  0  0  0  0           0  0  0
  2  9  1  0     0  0
  3  1  1  0     0  0
  4 27  1  0     0  0
  5 13  1  0     0  0
  6 17  1  0     0  0
  7 22  1  0     0  0
  8  6  1  0     0  0
  9  3  1  0     0  0
 10  2  1  0     0  0
 11  7  1  0     0  0
 12  5  1  0     0  0
 13  8  1  0     0  0
 13 14  1  6     0  0
 15  1  1  0     0  0
 16 18  1  0     0  0
 17 11  1  0     0  0
 18 12  1  0     0  0
 19 26  1  0     0  0
 20 24  1  0     0  0
 21 14  1  0     0  0
 22 10  1  0     0  0
 15 23  1  6     0  0
 24 46  1  0     0  0
 25 16  1  0     0  0
 26 20  1  0     0  0
 27 51  1  0     0  0
 28 50  1  0     0  0
 29  4  2  0     0  0
 30  1  2  0     0  0
 31  2  2  0     0  0
 32  6  2  0     0  0
 33  5  2  0     0  0
 34  7  2  0     0  0
 17 35  1  1     0  0
 36 16  2  0     0  0
 37 19  2  0     0  0
 18 38  1  1     0  0
 39 21  2  0     0  0
 40 24  2  0     0  0
 41 28  2  0     0  0
 42 23  1  0     0  0
 26 43  1  1     0  0
 44  4  1  0     0  0
 45  4  1  0     0  0
 46 25  1  0     0  0
 47 15  1  0     0  0
  9 48  1  1     0  0
 49 21  1  0     0  0
 50 43  1  0     0  0
 51 59  2  0     0  0
 52 35  1  0     0  0
 53 19  1  0     0  0
 22 54  1  1     0  0
 55 28  1  0     0  0
 56 63  1  0     0  0
 57 52  1  0     0  0
 58 52  2  0     0  0
 59 58  1  0     0  0
 60 57  2  0     0  0
 61 23  1  0     0  0
 62 38  1  0     0  0
 63 54  1  0     0  0
 64 42  2  0     0  0
 65 42  1  0     0  0
 66 56  1  0     0  0
 67 48  1  0     0  0
 68 48  1  0     0  0
 69 62  1  0     0  0
 70 62  1  0     0  0
 71 64  1  0     0  0
 72 65  2  0     0  0
 73 72  1  0     0  0
 73 71  2  0     0  0
 51 60  1  0     0  0
M  END