
          11280715182D 1   1.00000     0.00000     0

 34 38  0     0  0            999 V2000
   -3.0375    1.9583    0.0000 C   0  0  0  0  0  0           0  0  0
   -3.7958    1.6208    0.0000 N   0  0  3  0  0  0           0  0  0
   -2.3208    1.5458    0.0000 N   0  0  0  0  0  0           0  0  0
   -1.6083    1.9625    0.0000 C   0  0  0  0  0  0           0  0  0
   -4.3458    2.2333    0.0000 N   0  0  0  0  0  0           0  0  0
   -3.1333    2.7833    0.0000 C   0  0  0  0  0  0           0  0  0
   -0.1833    1.9708    0.0000 C   0  0  0  0  0  0           0  0  0
   -0.8958    1.5500    0.0000 N   0  0  0  0  0  0           0  0  0
    0.5417    1.5583    0.0000 C   0  0  0  0  0  0           0  0  0
    1.2500    1.9708    0.0000 C   0  0  0  0  0  0           0  0  0
   -3.9333    2.9583    0.0000 C   0  0  0  0  0  0           0  0  0
    2.6750    5.2625    0.0000 N   0  0  3  0  0  0           0  0  0
   -3.9625    0.8208    0.0000 C   0  0  0  0  0  0           0  0  0
    1.2417    2.7875    0.0000 C   0  0  0  0  0  0           0  0  0
   -1.6125    2.7875    0.0000 O   0  0  0  0  0  0           0  0  0
   -0.1833    2.7958    0.0000 C   0  0  0  0  0  0           0  0  0
    0.5292    3.2083    0.0000 C   0  0  0  0  0  0           0  0  0
    2.6750    6.9042    0.0000 O   0  0  0  0  0  0           0  0  0
    1.9625    3.2083    0.0000 O   0  0  0  0  0  0           0  0  0
    2.6750    4.4375    0.0000 C   0  0  0  0  0  0           0  0  0
    1.9625    4.0250    0.0000 C   0  0  0  0  0  0           0  0  0
    1.9667    5.6667    0.0000 C   0  0  0  0  0  0           0  0  0
    3.3875    5.6667    0.0000 C   0  0  0  0  0  0           0  0  0
    0.5417    0.7458    0.0000 C   0  0  0  0  0  0           0  0  0
    1.9542    1.5708    0.0000 C   0  0  0  0  0  0           0  0  0
    1.9667    6.4917    0.0000 C   0  0  0  0  0  0           0  0  0
    3.3875    6.4917    0.0000 C   0  0  0  0  0  0           0  0  0
   -4.7458    0.5583    0.0000 C   0  0  0  0  0  0           0  0  0
   -3.3458    0.2708    0.0000 C   0  0  0  0  0  0           0  0  0
    1.9625    0.7500    0.0000 C   0  0  0  0  0  0           0  0  0
    1.2542    0.3333    0.0000 C   0  0  0  0  0  0           0  0  0
   -3.5125   -0.5417    0.0000 C   0  0  0  0  0  0           0  0  0
   -4.9125   -0.2500    0.0000 C   0  0  0  0  0  0           0  0  0
   -4.3000   -0.8000    0.0000 C   0  0  0  0  0  0           0  0  0
  2  1  1  0     0  0
  3  1  1  0     0  0
  4  3  1  0     0  0
  5  2  1  0     0  0
  6  1  2  0     0  0
  7  8  1  0     0  0
  8  4  1  0     0  0
  9  7  2  0     0  0
 10  9  1  0     0  0
 11  6  1  0     0  0
 12 20  1  0     0  0
 13  2  1  0     0  0
 14 17  1  0     0  0
 15  4  2  0     0  0
 16  7  1  0     0  0
 17 16  2  0     0  0
 18 27  1  0     0  0
 19 14  1  0     0  0
 20 21  1  0     0  0
 21 19  1  0     0  0
 22 12  1  0     0  0
 23 12  1  0     0  0
 24  9  1  0     0  0
 25 10  1  0     0  0
 26 22  1  0     0  0
 27 23  1  0     0  0
 28 13  2  0     0  0
 29 13  1  0     0  0
 30 31  1  0     0  0
 31 24  2  0     0  0
 32 29  2  0     0  0
 33 28  1  0     0  0
 34 32  1  0     0  0
  5 11  2  0     0  0
 34 33  2  0     0  0
 14 10  2  0     0  0
 25 30  2  0     0  0
 18 26  1  0     0  0
M  END