
  CDK    9/16/09,9:46

 33 37  0  0  0  0  0  0  0  0999 V2000
   10.2929   -9.5110    0.0000 C   0  0  0  0  0  0  0  0  0  0  0  0
   10.2916  -10.3382    0.0000 C   0  0  0  0  0  0  0  0  0  0  0  0
   11.0043  -10.7509    0.0000 C   0  0  0  0  0  0  0  0  0  0  0  0
   11.7233  -10.3377    0.0000 C   0  0  0  0  0  0  0  0  0  0  0  0
    9.5769  -10.7495    0.0000 Cl  0  0  0  0  0  0  0  0  0  0  0  0
   11.7218   -9.5095    0.0000 C   0  0  0  0  0  0  0  0  0  0  0  0
   12.7116   -7.7775    0.0000 C   0  0  0  0  0  0  0  0  0  0  0  0
   11.9921   -7.3662    0.0000 C   0  0  0  0  0  0  0  0  0  0  0  0
   11.1966   -7.5832    0.0000 C   0  0  0  0  0  0  0  0  0  0  0  0
   10.7855   -8.3028    0.0000 C   0  0  0  0  0  0  0  0  0  0  0  0
   11.0023   -9.0983    0.0000 C   0  0  0  0  0  0  0  0  0  0  0  0
   12.9320   -8.5698    0.0000 C   0  0  0  0  0  0  0  0  0  0  0  0
   12.5173   -9.2926    0.0000 C   0  0  0  0  0  0  0  0  0  0  0  0
   13.0766   -9.9105    0.0000 N   0  0  0  0  0  0  0  0  0  0  0  0
   13.8371   -9.5694    0.0000 N   0  0  0  0  0  0  0  0  0  0  0  0
   13.7476   -8.7409    0.0000 C   0  0  0  0  0  0  0  0  0  0  0  0
   14.3590   -8.1874    0.0000 C   0  0  0  0  0  0  0  0  0  0  0  0
   15.1439   -8.4400    0.0000 N   0  0  0  0  0  0  0  0  0  0  0  0
   14.1852   -7.3812    0.0000 O   0  0  0  0  0  0  0  0  0  0  0  0
   15.7553   -7.8865    0.0000 N   0  0  0  0  0  0  0  0  0  0  0  0
   16.5374   -8.1449    0.0000 C   0  0  0  0  0  0  0  0  0  0  0  0
   17.1473   -7.5953    0.0000 C   0  0  0  0  0  0  0  0  0  0  0  0
   16.9777   -6.7879    0.0000 C   0  0  0  0  0  0  0  0  0  0  0  0
   16.1924   -6.5331    0.0000 C   0  0  0  0  0  0  0  0  0  0  0  0
   15.5767   -7.0856    0.0000 C   0  0  0  0  0  0  0  0  0  0  0  0
   12.9079  -10.7143    0.0000 C   0  0  0  0  0  0  0  0  0  0  0  0
   12.1228  -10.9704    0.0000 C   0  0  0  0  0  0  0  0  0  0  0  0
   11.9533  -11.7767    0.0000 C   0  0  0  0  0  0  0  0  0  0  0  0
   12.5680  -12.3277    0.0000 C   0  0  0  0  0  0  0  0  0  0  0  0
   13.3549  -12.0669    0.0000 C   0  0  0  0  0  0  0  0  0  0  0  0
   13.5206  -11.2612    0.0000 C   0  0  0  0  0  0  0  0  0  0  0  0
   12.3998  -13.1351    0.0000 Cl  0  0  0  0  0  0  0  0  0  0  0  0
   14.3034  -11.0022    0.0000 Cl  0  0  0  0  0  0  0  0  0  0  0  0
 15 16  2  0  0  0  0 
 16 12  1  0  0  0  0 
 11  1  1  0  0  0  0 
 16 17  1  0  0  0  0 
 17 18  1  0  0  0  0 
 13  6  1  0  0  0  0 
 17 19  2  0  0  0  0 
 12  7  1  0  0  0  0 
 18 20  1  0  0  0  0 
 20 21  1  0  0  0  0 
  7  8  1  0  0  0  0 
  8  9  1  0  0  0  0 
  9 10  1  0  0  0  0 
 10 11  1  0  0  0  0 
 11  6  2  0  0  0  0 
 20 25  1  0  0  0  0 
 21 22  1  0  0  0  0 
 22 23  1  0  0  0  0 
 23 24  1  0  0  0  0 
 24 25  1  0  0  0  0 
 12 13  2  0  0  0  0 
  2  5  1  0  0  0  0 
 26 27  2  0  0  0  0 
  2  3  1  0  0  0  0 
 27 28  1  0  0  0  0 
  1  2  2  0  0  0  0 
 28 29  2  0  0  0  0 
  3  4  2  0  0  0  0 
 29 30  1  0  0  0  0 
  4  6  1  0  0  0  0 
 30 31  2  0  0  0  0 
 31 26  1  0  0  0  0 
 14 26  1  0  0  0  0 
 13 14  1  0  0  0  0 
 29 32  1  0  0  0  0 
 14 15  1  0  0  0  0 
 31 33  1  0  0  0  0 
M  END