
          11280715092D 1   1.00000     0.00000     0

 30 32  0     0  0            999 V2000
    4.8792   -0.0625    0.0000 N   0  3  0  0  0  0           0  0  0
    2.2375   -0.1667    0.0000 C   0  0  0  0  0  0           0  0  0
    4.3167    0.1708    0.0000 C   0  0  0  0  0  0           0  0  0
    3.8417   -0.1917    0.0000 C   0  0  0  0  0  0           0  0  0
   -2.6833   -1.7625    0.0000 N   0  0  3  0  0  0           0  0  0
    2.8167   -0.3167    0.0000 N   0  0  0  0  0  0           0  0  0
    4.9542   -0.6542    0.0000 O   0  5  0  0  0  0           0  0  0
    5.3542    0.3083    0.0000 O   0  0  0  0  0  0           0  0  0
    3.2917    0.0458    0.0000 C   0  0  0  0  0  0           0  0  0
    2.0792    0.4125    0.0000 O   0  0  0  0  0  0           0  0  0
   -2.0833   -1.7667    0.0000 C   0  0  0  0  0  0           0  0  0
    1.8125   -0.5917    0.0000 N   0  0  0  0  0  0           0  0  0
   -1.7833   -1.2417    0.0000 C   0  0  0  0  0  0           0  0  0
   -1.1958   -1.4000    0.0000 C   0  0  0  0  0  0           0  0  0
   -0.7750   -0.9792    0.0000 C   0  0  0  0  0  0           0  0  0
    0.8042   -0.8625    0.0000 C   0  0  0  0  0  0           0  0  0
   -0.1958   -1.1292    0.0000 O   0  0  0  0  0  0           0  0  0
    4.2417    0.7708    0.0000 C   0  0  0  0  0  0           0  0  0
   -2.9833   -2.2792    0.0000 C   0  0  0  0  0  0           0  0  0
   -2.9750   -1.2417    0.0000 C   0  0  0  0  0  0           0  0  0
    3.6875    1.0000    0.0000 C   0  0  0  0  0  0           0  0  0
   -1.5125   -0.2500    0.0000 C   0  0  0  0  0  0           0  0  0
    1.2292   -0.4375    0.0000 C   0  0  0  0  0  0           0  0  0
    3.2125    0.6333    0.0000 C   0  0  0  0  0  0           0  0  0
   -1.9333   -0.6667    0.0000 C   0  0  0  0  0  0           0  0  0
    0.2292   -0.7042    0.0000 C   0  0  0  0  0  0           0  0  0
   -0.9333   -0.4000    0.0000 C   0  0  0  0  0  0           0  0  0
   -3.5750   -1.2417    0.0000 C   0  0  0  0  0  0           0  0  0
   -3.5833   -2.2750    0.0000 C   0  0  0  0  0  0           0  0  0
   -3.8833   -1.7542    0.0000 C   0  0  0  0  0  0           0  0  0
  2  6  1  0     0  0
  3  1  1  0     0  0
  4  3  1  0     0  0
  5 11  1  0     0  0
  6  9  1  0     0  0
  7  1  1  0     0  0
  8  1  2  0     0  0
  9  4  2  0     0  0
 10  2  2  0     0  0
 11 13  1  0     0  0
 12  2  1  0     0  0
 13 14  2  0     0  0
 14 15  1  0     0  0
 15 17  1  0     0  0
 16 23  1  0     0  0
 17 26  1  0     0  0
 18  3  2  0     0  0
 19  5  1  0     0  0
 20  5  1  0     0  0
 21 18  1  0     0  0
 22 27  1  0     0  0
 23 12  1  0     0  0
 24 21  2  0     0  0
 25 22  2  0     0  0
 26 16  1  0     0  0
 27 15  2  0     0  0
 28 20  1  0     0  0
 29 19  1  0     0  0
 30 28  1  0     0  0
  9 24  1  0     0  0
 25 13  1  0     0  0
 30 29  1  0     0  0
M  CHG  2   1   1   7  -1
M  END