
  CDK    9/16/09,10:2

 22 24  0  0  0  0  0  0  0  0999 V2000
    6.0153  -24.6660    0.0000 C   0  0  0  0  0  0  0  0  0  0  0  0
    5.9715  -26.3173    0.0000 N   0  0  0  0  0  0  0  0  0  0  0  0
    6.6999  -25.9183    0.0000 C   0  0  0  0  0  0  0  0  0  0  0  0
    6.7179  -25.0944    0.0000 N   0  0  0  0  0  0  0  0  0  0  0  0
    5.2663  -25.8852    0.0000 C   0  0  0  0  0  0  0  0  0  0  0  0
    5.2852  -25.0617    0.0000 C   0  0  0  0  0  0  0  0  0  0  0  0
    4.5079  -24.7891    0.0000 C   0  0  0  0  0  0  0  0  0  0  0  0
    4.0085  -25.4443    0.0000 N   0  0  0  0  0  0  0  0  0  0  0  0
    4.4772  -26.1215    0.0000 N   0  0  0  0  0  0  0  0  0  0  0  0
    4.2043  -26.9001    0.0000 C   0  0  0  0  0  0  0  0  0  0  0  0
    7.4051  -26.3465    0.0000 N   0  0  0  0  0  0  0  0  0  0  0  0
    8.1285  -25.9499    0.0000 C   0  0  0  0  0  0  0  0  0  0  0  0
    8.8337  -26.3781    0.0000 C   0  0  0  0  0  0  0  0  0  0  0  0
    9.5571  -25.9815    0.0000 C   0  0  0  0  0  0  0  0  0  0  0  0
   10.2623  -26.4096    0.0000 O   0  0  0  0  0  0  0  0  0  0  0  0
    6.0363  -23.8412    0.0000 N   0  0  0  0  0  0  0  0  0  0  0  0
    5.3326  -23.4107    0.0000 C   0  0  0  0  0  0  0  0  0  0  0  0
    5.3552  -22.5855    0.0000 C   0  0  0  0  0  0  0  0  0  0  0  0
    4.6523  -22.1550    0.0000 C   0  0  0  0  0  0  0  0  0  0  0  0
    3.9265  -22.5492    0.0000 C   0  0  0  0  0  0  0  0  0  0  0  0
    3.9081  -23.3783    0.0000 C   0  0  0  0  0  0  0  0  0  0  0  0
    4.6117  -23.8050    0.0000 C   0  0  0  0  0  0  0  0  0  0  0  0
  5  6  1  0  0  0  0 
  3 11  1  0  0  0  0 
  5  2  2  0  0  0  0 
 11 12  1  0  0  0  0 
  1  6  2  0  0  0  0 
 12 13  1  0  0  0  0 
  2  3  1  0  0  0  0 
 13 14  1  0  0  0  0 
 14 15  1  0  0  0  0 
  3  4  2  0  0  0  0 
  1 16  1  0  0  0  0 
  6  7  1  0  0  0  0 
 16 17  1  0  0  0  0 
  7  8  2  0  0  0  0 
 17 18  2  0  0  0  0 
  8  9  1  0  0  0  0 
 18 19  1  0  0  0  0 
  9  5  1  0  0  0  0 
 19 20  2  0  0  0  0 
  4  1  1  0  0  0  0 
 20 21  1  0  0  0  0 
  9 10  1  0  0  0  0 
 21 22  2  0  0  0  0 
 22 17  1  0  0  0  0 
M  END