
  SciTegic01161211252D

 28 30  0  0  0  0            999 V2000
   13.2240  -14.2543    0.0000 C   0  0
   13.2229  -15.0815    0.0000 C   0  0
   13.9375  -15.4942    0.0000 C   0  0
   14.6537  -15.0810    0.0000 C   0  0
   14.6509  -14.2507    0.0000 C   0  0
   13.9357  -13.8416    0.0000 C   0  0
   12.5083  -15.4933    0.0000 N   0  0
   11.7943  -15.0803    0.0000 C   0  0
   11.0797  -15.4922    0.0000 N   0  0
   11.7950  -14.2555    0.0000 O   0  0
   10.3658  -15.0787    0.0000 C   0  0
   10.0921  -14.2996    0.0000 C   0  0
    9.2665  -14.3153    0.0000 C   0  0
    9.0277  -15.1059    0.0000 O   0  0
    9.7064  -15.5762    0.0000 N   0  0
    8.7684  -13.6578    0.0000 C   0  0
    9.1438  -12.9234    0.0000 C   0  0
    7.9446  -13.6998    0.0000 C   0  0
    8.2425  -13.0125    0.0000 C   0  0
   15.3636  -13.8357    0.0000 N   0  0
   16.0794  -14.2453    0.0000 C   0  0
   16.7921  -13.8303    0.0000 C   0  0
   16.0747  -15.0666    0.0000 O   0  0
   17.5064  -14.2433    0.0000 C   0  0
   18.2186  -13.8290    0.0000 C   0  0
   18.2159  -13.0033    0.0000 C   0  0
   17.4951  -12.5938    0.0000 N   0  0
   16.7858  -13.0106    0.0000 C   0  0
 11 12  1  0
 13 14  1  0
 14 15  1  0
 15 11  2  0
  3  4  2  0
 13 16  1  0
  7  8  1  0
 16 17  1  0
 16 18  1  0
  8  9  1  0
 16 19  1  0
  4  5  1  0
  5 20  1  0
  8 10  2  0
 20 21  1  0
  2  3  1  0
 21 22  1  0
  9 11  1  0
 21 23  2  0
 12 13  2  0
 22 24  2  0
  5  6  2  0
 24 25  1  0
  6  1  1  0
 25 26  2  0
  1  2  2  0
 26 27  1  0
  2  7  1  0
 27 28  2  0
 28 22  1  0
M  END