
  SciTegic01311418102D

  9  9  0  0  0  0            999 V2000
   -3.0208   -0.8542    0.0000 C   0  0
   -3.7375    0.3708    0.0000 O   0  0
   -1.5833   -0.8542    0.0000 C   0  0
   -3.7375   -2.1167    0.0000 O   0  0
   -0.8750   -2.1167    0.0000 C   0  0
   -0.8750    0.3708    0.0000 C   0  0
    0.5542    0.3708    0.0000 C   0  0
    0.5542   -2.1167    0.0000 C   0  0
    1.2792   -0.8542    0.0000 C   0  0
  2  1  2  0
  3  1  1  0
  4  1  1  0
  5  3  2  0
  6  3  1  0
  7  6  2  0
  8  5  1  0
  9  8  2  0
  7  9  1  0
M  END