
  SciTegic06011109532D

156163  0  0  0  0            999 V2000
   13.0371  -16.3360    0.0000 O   0  0
   13.7515  -16.7485    0.0000 C   0  0
   14.4660  -16.3360    0.0000 C   0  0
   15.1805  -16.7485    0.0000 N   0  0
   14.4660  -15.5110    0.0000 O   0  0
   15.8950  -16.3360    0.0000 C   0  0
   16.6079  -16.7529    0.0000 C   0  0
   17.3219  -16.3411    0.0000 C   0  0
   17.3224  -15.5152    0.0000 C   0  0
   16.6029  -15.1029    0.0000 C   0  0
   15.8918  -15.5171    0.0000 C   0  0
   18.0363  -15.1018    0.0000 C   0  0
   18.7513  -15.5133    0.0000 C   0  0
   19.4652  -15.0999    0.0000 C   0  0
   20.1802  -15.5114    0.0000 N   0  0
   19.4641  -14.2749    0.0000 O   0  0
   20.3938  -16.3038    0.0000 C   0  0
   21.1904  -16.0892    0.0000 C   0  0
   20.9758  -15.2926    0.0000 C   0  0
   19.9823  -17.0189    0.0000 O   0  0
   11.6120  -16.3511    0.0000 C   0  0
   11.6030  -15.5261    0.0000 O   0  0
   12.3309  -16.7558    0.0000 C   0  0
   10.8954  -16.7620    0.0000 N   0  0
    8.0375  -16.7583    0.0000 C   0  0
    8.7525  -16.3468    0.0000 C   0  0
    9.4664  -16.7602    0.0000 C   0  0
   10.1814  -16.3486    0.0000 C   0  0
    0.9316  -19.2027    0.0000 C   0  0  2  0  0  0
    0.2201  -17.9648    0.0000 O   0  0
    0.2201  -18.7885    0.0000 C   0  0
    0.9316  -20.0221    0.0000 C   0  0
    0.2201  -20.4358    0.0000 C   0  0
    0.2201  -21.2595    0.0000 C   0  0
   -1.2094  -18.7885    0.0000 C   0  0  1  0  0  0
   -1.9208  -20.0221    0.0000 O   0  0
   -1.9208  -19.2027    0.0000 C   0  0
   -3.3503  -19.2027    0.0000 C   0  0  2  0  0  0
   -4.0658  -17.9648    0.0000 O   0  0
   -4.0658  -18.7885    0.0000 C   0  0
   -3.3503  -20.0221    0.0000 C   0  0
   -4.0658  -20.4358    0.0000 C   0  0
    1.6463  -18.7925    0.0000 N   0  0
   -2.6230  -15.4392    0.0000 C   0  0  2  0  0  0
   -1.9016  -14.2060    0.0000 O   0  0
   -1.8990  -15.0250    0.0000 C   0  0
   -2.6125  -16.2577    0.0000 C   0  0
   -0.4821  -15.0175    0.0000 C   0  0  2  0  0  0
    0.2332  -16.2450    0.0000 O   0  0
    0.2335  -15.4178    0.0000 C   0  0
   -0.4808  -14.1991    0.0000 C   0  0
    0.2219  -13.7850    0.0000 C   0  0
   -1.1998  -13.7858    0.0000 C   0  0
    3.0685  -17.9673    0.0000 C   0  0
    3.0685  -18.7886    0.0000 C   0  0  1  0  0  0
    2.3912  -15.0232    0.0000 C   0  0
    1.6615  -15.4321    0.0000 C   0  0  2  0  0  0
    1.6533  -16.2611    0.0000 C   0  0
    2.3718  -16.6903    0.0000 S   0  0
    2.3629  -17.5288    0.0000 S   0  0
    5.2019  -15.0759    0.0000 C   0  0
    3.7898  -14.2383    0.0000 C   0  0
    3.0723  -13.8164    0.0000 C   0  0  2  0  0  0
    2.3542  -19.2027    0.0000 C   0  0
    2.3538  -20.0216    0.0000 O   0  0
    3.1044  -15.4210    0.0000 O   0  0
    5.2107  -14.2579    0.0000 C   0  0  2  0  0  0
    3.0844  -12.9976    0.0000 C   0  0
    3.7842  -15.0602    0.0000 O   0  0
    5.9196  -13.8571    0.0000 C   0  0
    5.9279  -13.0342    0.0000 C   0  0
    4.4853  -15.4830    0.0000 O   0  0
    3.7748  -20.0283    0.0000 C   0  0
    3.0593  -20.4342    0.0000 O   0  0
    4.4828  -20.4366    0.0000 C   0  0  2  0  0  0
    4.4738  -21.2650    0.0000 C   0  0
    5.9008  -20.4452    0.0000 C   0  0
    5.8974  -21.2675    0.0000 O   0  0
    5.9050  -18.8167    0.0000 C   0  0
    5.9038  -17.9938    0.0000 C   0  0  1  0  0  0
    5.1988  -19.2243    0.0000 O   0  0
    6.6068  -16.7555    0.0000 C   0  0
    5.8959  -16.3528    0.0000 O   0  0
    7.3194  -16.3397    0.0000 C   0  0  1  0  0  0
    8.0266  -15.1100    0.0000 C   0  0
    8.0189  -14.2814    0.0000 C   0  0  2  0  0  0
    8.7417  -15.5129    0.0000 O   0  0
    8.7338  -13.8655    0.0000 C   0  0
    8.7324  -13.0489    0.0000 C   0  0
    9.4426  -14.2812    0.0000 C   0  0
   -3.3220  -15.0306    0.0000 N   0  0
   -1.1957  -15.4283    0.0000 N   0  0
    3.7773  -19.2061    0.0000 N   0  0
    2.3601  -14.2313    0.0000 N   0  0
    4.5028  -13.8342    0.0000 N   0  0
    5.1943  -20.0348    0.0000 N   0  0
    6.6187  -17.5786    0.0000 N   0  0
    7.3304  -15.5116    0.0000 N   0  0
    5.9106  -15.4939    0.0000 N   0  0
    0.9525  -15.0209    0.0000 N   0  0
    6.6049  -12.5669    0.0000 C   0  0
    6.3622  -11.7809    0.0000 N   0  0
   -0.4915  -19.2027    0.0000 N   0  0
   -2.6324  -18.7885    0.0000 N   0  0
   -4.7774  -19.2027    0.0000 N   0  0
    5.2757  -12.5486    0.0000 C   0  0
    5.5397  -11.7720    0.0000 C   0  0
    4.9997  -11.1572    0.0000 C   0  0
    4.1958  -11.3176    0.0000 C   0  0
    3.9345  -12.0983    0.0000 C   0  0
    4.4760  -12.7099    0.0000 C   0  0
   -3.3281  -16.6833    0.0000 C   0  0
   -3.3175  -17.5158    0.0000 O   0  0
   -4.0545  -16.2762    0.0000 O   0  0
   -3.3175  -14.1980    0.0000 C   0  0
   -4.0364  -13.7778    0.0000 C   0  0  2  0  0  0
   -2.5943  -13.7855    0.0000 O   0  0
   -4.0320  -12.9452    0.0000 C   0  0
   -4.7598  -14.1903    0.0000 N   0  0
   -3.3087  -12.5327    0.0000 C   0  0
   -2.5907  -12.9564    0.0000 C   0  0
   -1.8678  -12.5446    0.0000 C   0  0
   -1.8630  -11.7111    0.0000 C   0  0
   -2.5869  -11.2910    0.0000 C   0  0
   -3.3067  -11.7052    0.0000 C   0  0
   -1.2110  -17.9558    0.0000 C   0  0
   -1.9328  -17.5409    0.0000 C   0  0
   -0.5011  -21.6758    0.0000 C   0  0
   -0.5011  -22.5085    0.0000 N   0  0
   -0.4973  -17.5419    0.0000 C   0  0
   -5.4720  -13.7740    0.0000 C   0  0
   -6.1946  -14.1826    0.0000 C   0  0
   -5.4676  -12.9490    0.0000 O   0  0
   -1.2155  -22.9210    0.0000 C   0  0
   -1.2155  -23.7460    0.0000 O   0  0
   -1.9300  -22.5085    0.0000 C   0  0
    2.3761  -12.5746    0.0000 C   0  0
    2.3883  -11.7497    0.0000 O   0  0
    1.6556  -12.9765    0.0000 N   0  0
   -4.7805  -20.0238    0.0000 S   0  0
   -5.4947  -20.4367    0.0000 C   0  0
    3.7549  -21.6697    0.0000 C   0  0
    3.0043  -21.3294    0.0000 C   0  0
    2.4457  -21.9365    0.0000 N   0  0
    2.8504  -22.6554    0.0000 C   0  0
    3.6592  -22.4926    0.0000 N   0  0
    6.6274  -19.2141    0.0000 N   0  0
    6.6197  -20.0374    0.0000 C   0  0  1  0  0  0
    7.4004  -20.2992    0.0000 C   0  0
    7.8906  -19.6376    0.0000 C   0  0
    7.4128  -18.9670    0.0000 C   0  0
    6.6125  -20.8583    0.0000 H   0  0
    5.1885  -17.5827    0.0000 C   0  0
    4.4749  -17.9967    0.0000 C   0  0
    3.7596  -17.5856    0.0000 C   0  0
    4.4766  -18.8217    0.0000 C   0  0
  3  5  2  0
 17 18  1  0
 18 19  1  0
 79 81  2  0
 80 97  1  0
 97 82  1  0
 82 83  2  0
 82 84  1  0
 84 98  1  0
 98 85  1  0
 85 86  1  0
 85 87  2  0
 86 88  1  1
 88 89  1  0
 88 90  1  0
 86 99  1  0
 29 31  1  0
 31 30  2  0
 29 32  1  1
 32 33  1  0
 33 34  1  0
 71101  2  0
103 35  1  0
 35 37  1  0
101102  1  0
106 71  1  0
 37 36  2  0
107102  1  0
104 38  1  0
 38 40  1  0
 40 39  2  0
 64 43  1  0
 38 41  1  1
 41 42  1  0
 29 43  1  0
 31103  1  0
 37104  1  0
 40105  1  0
 44 46  1  0
106107  2  0
 46 45  2  0
107108  1  0
 44 47  1  6
108109  2  0
 48 50  1  0
109110  1  0
 50 49  2  0
110111  2  0
111106  1  0
 48 51  1  0
 47112  1  0
 51 52  1  0
112113  2  0
 51 53  1  0
112114  1  0
 46 92  1  0
 91115  1  0
 48 92  1  1
115116  1  0
 91 44  1  0
115117  2  0
 54 55  1  0
116118  1  1
 55 93  1  0
116119  1  0
 56 57  1  0
118120  1  0
 57 58  1  0
120121  2  0
 58 59  1  0
121122  1  0
 60 59  1  0
122123  2  0
 61 99  1  0
123124  1  0
 95 62  1  0
124125  2  0
125120  1  0
 61 67  1  0
 63 94  1  0
 62 63  1  0
 94 56  1  0
 35126  1  6
 60 54  1  0
 55 64  1  6
126127  1  0
 64 65  2  0
 57100  1  6
100 50  1  0
 56 66  2  0
 95 67  1  0
 63 68  1  1
 62 69  2  0
 67 70  1  1
 70 71  1  0
 61 72  2  0
 93 73  1  0
 73 74  2  0
 73 75  1  0
 75 76  1  1
 75 96  1  0
 84 25  1  1
 96 77  1  0
148 77  1  0
 77 78  2  0
147 79  1  0
 34128  1  0
 79 80  1  0
128129  1  0
 19 15  1  0
126130  1  0
  9 10  1  0
119131  1  0
 17 20  2  0
131132  1  0
  2  3  1  0
131133  2  0
 10 11  2  0
129134  1  0
 21 22  2  0
134135  2  0
 11  6  1  0
134136  1  0
 21 23  1  0
 68137  1  0
 23  1  1  0
137138  2  0
  4  6  1  0
137139  1  0
 24 21  1  0
 42140  1  0
  9 12  1  0
140141  1  0
  1  2  1  0
 76142  1  0
142143  2  0
 25 26  1  0
 12 13  1  0
 26 27  1  0
  6  7  2  0
143144  1  0
144145  2  0
145146  1  0
146142  1  0
147148  1  0
 27 28  1  0
 28 24  1  0
 13 14  1  0
  3  4  1  0
 14 15  1  0
148149  1  0
149150  1  0
150151  1  0
151147  1  0
  7  8  1  0
148152  1  6
 14 16  2  0
 80153  1  6
 15 17  1  0
153154  1  0
154155  1  0
  8  9  2  0
154156  1  0
M  END