
  SciTegic11201309402D

 40 45  0  0  0  0            999 V2000
    4.5397   -6.5314    0.0000 C   0  0
    4.5404   -7.3536    0.0000 C   0  0  1  0  0  0
    5.2608   -6.1228    0.0000 C   0  0  1  0  0  0
    5.9696   -6.5381    0.0000 C   0  0  2  0  0  0
    7.3891   -7.3712    0.0000 C   0  0  1  0  0  0
    6.6820   -6.1330    0.0000 C   0  0  2  0  0  0
    7.3917   -6.5503    0.0000 C   0  0  2  0  0  0
    7.3957   -4.9017    0.0000 C   0  0
    6.6828   -5.3093    0.0000 C   0  0
    8.1137   -5.3206    0.0000 C   0  0  2  0  0  0
    8.1098   -6.1392    0.0000 C   0  0
    8.8872   -6.4032    0.0000 C   0  0
    9.3761   -5.7385    0.0000 C   0  0
    8.9019   -5.0757    0.0000 C   0  0  1  0  0  0
    9.2035   -4.3015    0.0000 C   0  0
   10.0063   -4.1315    0.0000 C   0  0
   10.0867   -3.3114    0.0000 O   0  0
    9.3396   -2.9813    0.0000 C   0  0
    8.7904   -3.5873    0.0000 C   0  0
    8.1224   -4.4883    0.0000 C   0  0
    5.2657   -5.2932    0.0000 O   0  0
    3.8207   -7.7677    0.0000 O   0  0
    5.9654   -7.3679    0.0000 C   0  0  2  0  0  0
    5.2528   -7.7697    0.0000 C   0  0  2  0  0  0
    5.4203   -8.5758    0.0000 C   0  0
    6.4953   -8.5895    0.0000 O   0  0
    6.6743   -7.7812    0.0000 C   0  0  2  0  0  0
    4.5326   -8.1774    0.0000 C   0  0
    8.1029   -7.7861    0.0000 O   0  0
    7.3851   -5.7211    0.0000 C   0  0
    5.9630   -5.7086    0.0000 C   0  0
    3.1061   -7.3538    0.0000 C   0  0
    2.3904   -7.7656    0.0000 C   0  0
    3.1073   -6.5280    0.0000 O   0  0
    4.5531   -4.8762    0.0000 C   0  0
    4.5579   -4.0505    0.0000 O   0  0
    3.8356   -5.2848    0.0000 C   0  0
    5.8179   -5.6297    0.0000 H   0  0
    5.1032   -6.8613    0.0000 H   0  0
    7.4800   -8.3736    0.0000 H   0  0
  4 23  1  0
 16 17  1  0
 17 18  1  0
 18 19  2  0
 19 15  1  0
 14 15  1  6
  6  9  1  0
 10 20  1  6
  7 11  1  0
  3 21  1  6
 10  8  1  0
  2 22  1  6
 23 24  1  0
  8  9  1  0
 10 11  1  0
  1  2  1  0
  4  6  1  0
 24 25  1  0
 25 26  1  0
 27 26  1  0
 27 23  1  0
 27  5  1  0
 24 28  1  1
  5  7  1  0
  5 29  1  6
 11 12  2  0
  7 30  1  1
 12 13  1  0
  4 31  1  1
 13 14  1  0
 22 32  1  0
 14 10  1  0
 32 33  1  0
 15 16  2  0
 32 34  2  0
  6  7  1  0
 21 35  1  0
  1  3  1  0
 35 36  2  0
  2 24  1  0
 35 37  1  0
  4  3  1  0
  6 38  1  6
 23 39  1  6
 27 40  1  6
M  END