
  SciTegic01181116592D

 29 32  0  0  0  0            999 V2000
    7.4321  -26.5748    0.0000 C   0  0
    7.4319  -27.3997    0.0000 O   0  0
    6.7179  -26.1621    0.0000 N   0  0
    8.1467  -26.1624    0.0000 C   0  0
    8.1479  -25.3352    0.0000 C   0  0
    8.8614  -26.5753    0.0000 C   0  0
    8.8596  -24.9224    0.0000 C   0  0
    9.5749  -25.3315    0.0000 C   0  0
    9.5797  -26.1579    0.0000 C   0  0
   10.3672  -26.4087    0.0000 N   0  0
   10.8491  -25.7373    0.0000 C   0  0
   10.3587  -25.0720    0.0000 C   0  0
   10.7787  -24.3621    0.0000 C   0  0
   11.6036  -24.3710    0.0000 N   0  0
   12.0015  -25.0906    0.0000 C   0  0
   12.8227  -25.1015    0.0000 C   0  0
   13.2467  -24.3934    0.0000 O   0  0
   12.8432  -23.6729    0.0000 C   0  0
   12.0157  -23.6603    0.0000 C   0  0
   10.6266  -27.1917    0.0000 C   0  0
    6.7765  -25.3110    0.0000 C   0  0
    6.1725  -24.7763    0.0000 C   0  0
    6.0291  -26.6227    0.0000 C   0  0
    5.2486  -26.3613    0.0000 C   0  0
    4.9542  -25.5545    0.0000 C   0  0
    5.3677  -24.8804    0.0000 N   0  0
    4.9194  -24.1880    0.0000 C   0  0
    5.2948  -23.4535    0.0000 C   0  0
    4.0954  -24.2301    0.0000 C   0  0
 13 14  1  0
 14 15  1  0
  8  7  2  0
  7  5  1  0
  8  9  1  0
  1  4  1  0
 14 19  1  0
 15 16  1  0
 16 17  1  0
 17 18  1  0
 18 19  1  0
  5  4  2  0
 10 20  1  0
  1  3  1  0
  4  6  1  0
  9 10  1  0
 10 11  1  0
 11 12  2  0
 12  8  1  0
  3 21  1  0
 21 22  1  0
  3 23  1  0
 24 25  1  0
 25 26  1  0
 26 22  1  0
 23 24  1  0
  6  9  2  0
 26 27  1  0
 12 13  1  0
 27 28  1  0
  1  2  2  0
 27 29  1  0
M  END