
  CDK    9/16/09,10:6

 49 50  0  0  0  0  0  0  0  0999 V2000
   -2.3855  -24.9131    0.0000 C   0  0  0  0  0  0  0  0  0  0  0  0
   -2.3855  -25.7391    0.0000 C   0  0  0  0  0  0  0  0  0  0  0  0
   -1.6713  -26.1522    0.0000 C   0  0  0  0  0  0  0  0  0  0  0  0
   -0.9571  -25.7391    0.0000 C   0  0  0  0  0  0  0  0  0  0  0  0
   -0.9571  -24.9131    0.0000 C   0  0  0  0  0  0  0  0  0  0  0  0
   -1.6713  -24.5000    0.0000 C   0  0  0  0  0  0  0  0  0  0  0  0
   -1.6724  -23.6785    0.0000 O   0  0  0  0  0  0  0  0  0  0  0  0
   -1.6724  -26.9737    0.0000 O   0  0  0  0  0  0  0  0  0  0  0  0
   -3.0960  -24.5064    0.0000 C   0  0  0  0  0  0  0  0  0  0  0  0
   -3.0981  -23.6850    0.0000 C   0  0  0  0  0  0  0  0  0  0  0  0
   -3.8133  -23.2736    0.0000 C   0  0  0  0  0  0  0  0  0  0  0  0
   -2.3895  -23.2702    0.0000 C   0  0  0  0  0  0  0  0  0  0  0  0
   -2.3915  -22.4487    0.0000 C   0  0  0  0  0  0  0  0  0  0  0  0
   -1.6783  -22.0385    0.0000 C   0  0  0  0  0  0  0  0  0  0  0  0
   -3.1021  -22.0420    0.0000 O   0  0  0  0  0  0  0  0  0  0  0  0
   -1.6803  -21.2171    0.0000 C   0  0  0  0  0  0  0  0  0  0  0  0
   -0.9718  -20.8023    0.0000 C   0  0  0  0  0  0  0  0  0  0  0  0
   -2.3956  -20.8058    0.0000 C   0  0  0  0  0  0  0  0  0  0  0  0
   -0.2566  -21.2136    0.0000 C   0  0  0  0  0  0  0  0  0  0  0  0
    0.4519  -20.7988    0.0000 C   0  0  0  0  0  0  0  0  0  0  0  0
   -0.2546  -22.0350    0.0000 C   0  0  0  0  0  0  0  0  0  0  0  0
    1.2717  -20.7964    0.0000 C   0  0  0  0  0  0  0  0  0  0  0  0
    1.9818  -21.2095    0.0000 C   0  0  0  0  0  0  0  0  0  0  0  0
    1.4831  -20.0035    0.0000 O   0  0  0  0  0  0  0  0  0  0  0  0
    0.2383  -20.0064    0.0000 O   0  0  0  0  0  0  0  0  0  0  0  0
   -0.5553  -19.7970    0.0000 C   0  0  0  0  0  0  0  0  0  0  0  0
   -0.7737  -18.9998    0.0000 O   0  0  0  0  0  0  0  0  0  0  0  0
   -1.1352  -20.3798    0.0000 N   0  0  0  0  0  0  0  0  0  0  0  0
    2.2807  -19.7917    0.0000 C   0  0  0  0  0  0  0  0  0  0  0  0
    1.9796  -22.0310    0.0000 C   0  0  0  0  0  0  0  0  0  0  0  0
    1.2644  -22.4376    0.0000 C   0  0  0  0  0  0  0  0  0  0  0  0
    1.2624  -23.2590    0.0000 C   0  0  0  0  0  0  0  0  0  0  0  0
    1.9755  -23.6739    0.0000 C   0  0  0  0  0  0  0  0  0  0  0  0
   -0.2425  -24.5054    0.0000 N   0  0  0  0  0  0  0  0  0  0  0  0
   -0.2417  -23.6840    0.0000 C   0  0  0  0  0  0  0  0  0  0  0  0
   -0.9555  -23.2702    0.0000 O   0  0  0  0  0  0  0  0  0  0  0  0
   -3.8239  -22.4624    0.0000 C   0  0  0  0  0  0  0  0  0  0  0  0
   -2.4040  -21.6179    0.0000 N   0  0  0  0  0  0  0  0  0  0  0  0
   -3.1091  -26.1566    0.0000 N   0  0  0  0  0  0  0  0  0  0  0  0
   -3.8324  -25.7386    0.0000 C   0  0  0  0  0  0  0  0  0  0  0  0
   -4.5561  -26.1560    0.0000 C   0  0  0  0  0  0  0  0  0  0  0  0
   -5.2793  -25.7381    0.0000 N   0  0  0  0  0  0  0  0  0  0  0  0
   -6.0030  -26.1555    0.0000 C   0  0  0  0  0  0  0  0  0  0  0  0
   -5.2791  -24.9027    0.0000 C   0  0  0  0  0  0  0  0  0  0  0  0
   -2.8264  -20.8939    0.0000 C   0  0  0  0  0  0  0  0  0  0  0  0
   -3.6618  -20.8977    0.0000 C   0  0  0  0  0  0  0  0  0  0  0  0
   -4.4972  -20.8939    0.0000 F   0  0  0  0  0  0  0  0  0  0  0  0
   -3.6618  -21.7331    0.0000 F   0  0  0  0  0  0  0  0  0  0  0  0
   -3.6618  -20.0623    0.0000 F   0  0  0  0  0  0  0  0  0  0  0  0
 10 12  1  0  0  0  0 
 20 25  1  6  0  0  0 
  5  6  1  0  0  0  0 
 25 26  1  0  0  0  0 
 12 13  1  0  0  0  0 
 26 27  2  0  0  0  0 
 26 28  1  0  0  0  0 
 13 14  1  0  0  0  0 
 24 29  1  0  0  0  0 
  6  7  2  0  0  0  0 
 23 30  2  0  0  0  0 
 13 15  1  6  0  0  0 
 30 31  1  0  0  0  0 
  1  2  2  0  0  0  0 
 31 32  2  0  0  0  0 
 14 16  1  0  0  0  0 
 32 33  1  0  0  0  0 
  3  8  2  0  0  0  0 
  5 34  1  0  0  0  0 
 16 17  1  0  0  0  0 
 34 35  1  0  0  0  0 
  1  6  1  0  0  0  0 
 35 36  2  0  0  0  0 
 35 32  1  0  0  0  0 
 16 18  1  1  0  0  0 
 15 37  1  0  0  0  0 
  1  9  1  0  0  0  0 
 14 38  1  1  0  0  0 
 17 19  2  0  0  0  0 
  2 39  1  0  0  0  0 
  2  3  1  0  0  0  0 
 39 40  1  0  0  0  0 
 19 20  1  0  0  0  0 
 40 41  1  0  0  0  0 
  9 10  1  0  0  0  0 
 41 42  1  0  0  0  0 
 19 21  1  0  0  0  0 
 42 43  1  0  0  0  0 
  3  4  1  0  0  0  0 
 42 44  1  0  0  0  0 
 20 22  1  0  0  0  0 
 38 45  1  0  0  0  0 
 10 11  1  1  0  0  0 
 45 46  1  0  0  0  0 
 22 23  1  0  0  0  0 
 46 47  1  0  0  0  0 
  4  5  2  0  0  0  0 
 46 48  1  0  0  0  0 
 22 24  1  1  0  0  0 
 46 49  1  0  0  0  0 
M  END