
  SciTegic04091415032D

 27 30  0  0  0  0            999 V2000
    4.2192  -18.2613    0.0000 C   0  0
    4.2179  -19.0885    0.0000 C   0  0
    4.9328  -19.5014    0.0000 C   0  0
    4.9310  -17.8485    0.0000 C   0  0
    5.6463  -18.2576    0.0000 C   0  0
    5.6451  -19.0860    0.0000 C   0  0
    6.3580  -19.4990    0.0000 C   0  0
    7.0766  -19.0880    0.0000 C   0  0
    6.3603  -17.8421    0.0000 C   0  0  2  0  0  0
    7.0736  -18.2614    0.0000 C   0  0  2  0  0  0
    7.0847  -16.6096    0.0000 C   0  0
    6.3628  -17.0171    0.0000 C   0  0
    7.7980  -17.0288    0.0000 C   0  0  1  0  0  0
    7.7920  -17.8529    0.0000 C   0  0  1  0  0  0
    8.5740  -18.1133    0.0000 C   0  0
    9.0633  -17.4500    0.0000 C   0  0
    8.5836  -16.7799    0.0000 C   0  0
    3.5032  -19.5005    0.0000 O   0  0
    7.7870  -18.6737    0.0000 H   0  0
    7.7911  -16.2031    0.0000 C   0  0
    7.0662  -17.4364    0.0000 H   0  0
    6.3537  -18.6655    0.0000 H   0  0
    8.8442  -15.9972    0.0000 C   0  0  2  0  0  0
    9.6523  -15.8315    0.0000 C   0  0
    8.2967  -15.3802    0.0000 C   0  0
   10.1999  -16.4485    0.0000 C   0  0
   11.0081  -16.2829    0.0000 O   0  0
  1  2  2  0
  2  3  1  0
  3  6  2  0
  5  4  2  0
  4  1  1  0
  5  6  1  0
  5  9  1  0
  6  7  1  0
  7  8  1  0
  8 10  1  0
  9 10  1  0
  9 12  1  0
 10 14  1  0
 13 11  1  0
 11 12  1  0
 13 14  1  0
 14 15  1  0
 15 16  1  0
 16 17  2  0
 17 13  1  0
  2 18  1  0
 14 19  1  6
 13 20  1  1
 10 21  1  1
  9 22  1  6
 17 23  1  0
 23 24  1  0
 23 25  1  1
 24 26  1  0
 26 27  1  0
M  END