
  SciTegic01161211222D

 26 28  0  0  0  0            999 V2000
   14.0400  -24.6419    0.0000 C   0  0
   14.7563  -24.2286    0.0000 C   0  0
   14.7535  -23.3982    0.0000 C   0  0
   14.0382  -22.9891    0.0000 C   0  0
   13.3253  -24.2291    0.0000 C   0  0
   13.3249  -23.4018    0.0000 C   0  0
   12.6121  -22.9907    0.0000 C   0  0
   11.8952  -23.4025    0.0000 C   0  0
   11.8956  -24.2298    0.0000 C   0  0
   12.6129  -24.6453    0.0000 C   0  0
   15.4715  -24.6399    0.0000 C   0  0
   12.1946  -25.3558    0.0000 C   0  0
   13.0195  -25.3558    0.0000 C   0  0
   13.0195  -22.2728    0.0000 C   0  0
   12.1946  -22.2728    0.0000 C   0  0
   15.4664  -22.9830    0.0000 C   0  0
   16.1823  -23.3928    0.0000 C   0  0
   16.1821  -24.2154    0.0000 C   0  0
   16.8971  -24.6250    0.0000 C   0  0
   17.6109  -24.2098    0.0000 C   0  0
   17.6052  -23.3807    0.0000 C   0  0
   16.8895  -22.9747    0.0000 C   0  0
   18.3275  -24.6186    0.0000 C   0  0
   18.3317  -25.4436    0.0000 O   0  0
   19.0398  -24.2026    0.0000 O   0  0
   15.4633  -22.1581    0.0000 O   0  0
  5  1  1  0
 10 13  1  0
  2  3  1  0
  7 14  1  0
  7 15  1  0
  3  4  2  0
  3 16  1  0
  4  6  1  0
 16 17  1  0
  5 10  1  0
 17 18  2  0
  6  7  1  0
 18 19  1  0
  7  8  1  0
 19 20  2  0
  8  9  1  0
 20 21  1  0
  9 10  1  0
 21 22  2  0
 22 17  1  0
  5  6  2  0
 20 23  1  0
  2 11  1  0
 23 24  2  0
  1  2  2  0
 23 25  1  0
 10 12  1  0
 16 26  2  0
M  END