
  CDK    9/16/09,10:4

 35 38  0  0  0  0  0  0  0  0999 V2000
   13.8410  -19.1627    0.0000 C   0  0  0  0  0  0  0  0  0  0  0  0
   14.6704  -19.1438    0.0000 C   0  0  0  0  0  0  0  0  0  0  0  0
   15.0664  -18.4200    0.0000 C   0  0  0  0  0  0  0  0  0  0  0  0
   14.6376  -17.7105    0.0000 C   0  0  0  0  0  0  0  0  0  0  0  0
   13.8083  -17.7295    0.0000 C   0  0  0  0  0  0  0  0  0  0  0  0
   13.4077  -18.4579    0.0000 N   0  0  0  0  0  0  0  0  0  0  0  0
   14.0432  -18.7821    0.0000 C   0  0  0  0  0  0  0  0  0  0  0  0
   14.3666  -18.0871    0.0000 C   0  0  0  0  0  0  0  0  0  0  0  0
   12.5831  -18.4854    0.0000 C   0  0  0  0  0  0  0  0  0  0  0  0
   15.8914  -18.4098    0.0000 C   0  0  0  0  0  0  0  0  0  0  0  0
   16.7163  -18.3956    0.0000 C   0  0  0  0  0  0  0  0  0  0  0  0
   15.9036  -19.2347    0.0000 O   0  0  0  0  0  0  0  0  0  0  0  0
   15.8792  -17.5849    0.0000 C   0  0  0  0  0  0  0  0  0  0  0  0
   16.5883  -17.1647    0.0000 C   0  0  0  0  0  0  0  0  0  0  0  0
   16.5765  -16.3404    0.0000 C   0  0  0  0  0  0  0  0  0  0  0  0
   15.8554  -15.9377    0.0000 C   0  0  0  0  0  0  0  0  0  0  0  0
   15.1448  -16.3652    0.0000 C   0  0  0  0  0  0  0  0  0  0  0  0
   15.1601  -17.1880    0.0000 C   0  0  0  0  0  0  0  0  0  0  0  0
   17.1393  -19.1053    0.0000 C   0  0  0  0  0  0  0  0  0  0  0  0
   17.9634  -19.0914    0.0000 C   0  0  0  0  0  0  0  0  0  0  0  0
   18.3644  -18.3693    0.0000 C   0  0  0  0  0  0  0  0  0  0  0  0
   17.9352  -17.6597    0.0000 C   0  0  0  0  0  0  0  0  0  0  0  0
   17.1124  -17.6771    0.0000 C   0  0  0  0  0  0  0  0  0  0  0  0
   12.1470  -17.7850    0.0000 C   0  0  0  0  0  0  0  0  0  0  0  0
   11.3225  -17.8124    0.0000 O   0  0  0  0  0  0  0  0  0  0  0  0
   10.8864  -17.1121    0.0000 C   0  0  0  0  0  0  0  0  0  0  0  0
   10.0618  -17.1395    0.0000 C   0  0  0  0  0  0  0  0  0  0  0  0
    9.6294  -16.4378    0.0000 C   0  0  0  0  0  0  0  0  0  0  0  0
    8.8056  -16.4649    0.0000 C   0  0  0  0  0  0  0  0  0  0  0  0
    8.4163  -17.1933    0.0000 C   0  0  0  0  0  0  0  0  0  0  0  0
    8.8569  -17.8959    0.0000 C   0  0  0  0  0  0  0  0  0  0  0  0
    9.6792  -17.8653    0.0000 C   0  0  0  0  0  0  0  0  0  0  0  0
   19.1893  -18.3539    0.0000 F   0  0  0  0  0  0  0  0  0  0  0  0
   15.8421  -15.1128    0.0000 F   0  0  0  0  0  0  0  0  0  0  0  0
   12.9024  -15.2857    0.0000 Br  0  0  0  0  0  0  0  0  0  0  0  0
 16 17  1  0  0  0  0 
  7  8  1  0  0  0  0 
 17 18  2  0  0  0  0 
 18 13  1  0  0  0  0 
  3  8  1  0  0  0  0 
 11 19  2  0  0  0  0 
  1  2  1  0  0  0  0 
 19 20  1  0  0  0  0 
  6  9  1  0  0  0  0 
 20 21  2  0  0  0  0 
  1  6  1  0  0  0  0 
 21 22  1  0  0  0  0 
  3 10  1  0  0  0  0 
 22 23  2  0  0  0  0 
 23 11  1  0  0  0  0 
  2  3  1  0  0  0  0 
  9 24  1  0  0  0  0 
 10 11  1  0  0  0  0 
 24 25  1  0  0  0  0 
  3  4  1  0  0  0  0 
 25 26  1  0  0  0  0 
 10 12  1  0  0  0  0 
 26 27  1  0  0  0  0 
  4  5  1  0  0  0  0 
 27 28  2  0  0  0  0 
 10 13  1  0  0  0  0 
 28 29  1  0  0  0  0 
  5  6  1  0  0  0  0 
 29 30  2  0  0  0  0 
 13 14  2  0  0  0  0 
 30 31  1  0  0  0  0 
 31 32  2  0  0  0  0 
 32 27  1  0  0  0  0 
 14 15  1  0  0  0  0 
 21 33  1  0  0  0  0 
  6  7  1  0  0  0  0 
 16 34  1  0  0  0  0 
 15 16  2  0  0  0  0 
M  CHG  1   6   1
M  CHG  1  35  -1
M  END