
          11280714442D 1   1.00000     0.00000     0

 59 64  0     1  0            999 V2000
    7.5500   -2.0542    0.0000 N   0  0  3  0  0  0           0  0  0
    7.5500   -0.7250    0.0000 C   0  0  0  0  0  0           0  0  0
    6.7667   -1.8042    0.0000 C   0  0  0  0  0  0           0  0  0
    8.0292   -1.3875    0.0000 C   0  0  0  0  0  0           0  0  0
    6.7667   -0.9792    0.0000 C   0  0  0  0  0  0           0  0  0
    3.9042   -1.8000    0.0000 C   0  0  0  0  0  0           0  0  0
    1.7625   -2.2125    0.0000 C   0  0  0  0  0  0           0  0  0
    1.0417   -1.8000    0.0000 N   0  0  0  0  0  0           0  0  0
    3.1917   -2.2125    0.0000 N   0  0  0  0  0  0           0  0  0
    2.4750   -1.8000    0.0000 C   0  0  1  0  0  0           0  0  0
   -0.3833   -1.8000    0.0000 C   0  0  0  0  0  0           0  0  0
   -1.0958   -5.5250    0.0000 C   0  0  0  0  0  0           0  0  0
    6.0542   -2.2167    0.0000 C   0  0  0  0  0  0           0  0  0
    4.6167   -2.2167    0.0000 N   0  0  0  0  0  0           0  0  0
    7.8042   -2.8417    0.0000 C   0  0  0  0  0  0           0  0  0
   -1.0958   -2.2125    0.0000 N   0  0  0  0  0  0           0  0  0
    6.0542   -0.5667    0.0000 C   0  0  0  0  0  0           0  0  0
    0.3292   -2.2125    0.0000 C   0  0  2  0  0  0           0  0  0
    7.8042    0.0625    0.0000 C   0  0  0  0  0  0           0  0  0
   -1.8000   -5.9375    0.0000 N   0  0  0  0  0  0           0  0  0
    5.3375   -1.8042    0.0000 C   0  0  0  0  0  0           0  0  0
    3.9042   -0.9750    0.0000 O   0  0  0  0  0  0           0  0  0
    1.7625   -3.0417    0.0000 O   0  0  0  0  0  0           0  0  0
    2.4750   -0.9667    0.0000 C   0  0  0  0  0  0           0  0  0
   -0.3833   -0.9667    0.0000 O   0  0  0  0  0  0           0  0  0
    7.2500    0.6708    0.0000 N   0  0  0  0  0  0           0  0  0
   -1.0958   -4.6917    0.0000 N   0  0  0  0  0  0           0  0  0
   -0.3750   -5.9375    0.0000 N   0  0  0  0  0  0           0  0  0
    5.3375   -0.9792    0.0000 C   0  0  0  0  0  0           0  0  0
    7.2500   -3.4542    0.0000 C   0  0  0  0  0  0           0  0  0
    3.0542   -0.3792    0.0000 C   0  0  0  0  0  0           0  0  0
   -1.0958   -3.0417    0.0000 C   0  0  0  0  0  0           0  0  0
    6.1500   -4.6625    0.0000 C   0  0  0  0  0  0           0  0  0
    4.2250    0.7958    0.0000 C   0  0  0  0  0  0           0  0  0
    5.6000   -5.2667    0.0000 F   0  0  0  0  0  0           0  0  0
    6.4417   -3.2750    0.0000 C   0  0  0  0  0  0           0  0  0
    3.8542   -0.5917    0.0000 C   0  0  0  0  0  0           0  0  0
    7.5000   -4.2375    0.0000 C   0  0  0  0  0  0           0  0  0
    2.8375    0.4125    0.0000 C   0  0  0  0  0  0           0  0  0
    6.9417   -4.8417    0.0000 C   0  0  0  0  0  0           0  0  0
    5.8917   -3.8792    0.0000 C   0  0  0  0  0  0           0  0  0
    3.4167    1.0000    0.0000 C   0  0  0  0  0  0           0  0  0
    4.4417   -0.0042    0.0000 C   0  0  0  0  0  0           0  0  0
   -1.8083   -3.4542    0.0000 C   0  0  0  0  0  0           0  0  0
    7.5000    1.4583    0.0000 C   0  0  3  0  0  0           0  0  0
    4.8042    1.3750    0.0000 O   0  0  0  0  0  0           0  0  0
    0.3292   -3.0417    0.0000 C   0  0  0  0  0  0           0  0  0
   -0.3833   -4.2792    0.0000 C   0  0  0  0  0  0           0  0  0
   -2.5250   -3.0417    0.0000 C   0  0  0  0  0  0           0  0  0
   -1.8083   -4.2792    0.0000 C   0  0  0  0  0  0           0  0  0
    4.5875    2.1708    0.0000 C   0  0  0  0  0  0           0  0  0
    8.2792    1.7125    0.0000 C   0  0  0  0  0  0           0  0  0
    7.0125    2.1208    0.0000 C   0  0  0  0  0  0           0  0  0
   -0.3833   -3.4542    0.0000 C   0  0  0  0  0  0           0  0  0
   -2.5208   -4.6917    0.0000 C   0  0  0  0  0  0           0  0  0
   -3.2458   -3.4542    0.0000 C   0  0  0  0  0  0           0  0  0
    7.4917    2.7875    0.0000 C   0  0  0  0  0  0           0  0  0
    8.2750    2.5375    0.0000 C   0  0  0  0  0  0           0  0  0
   -3.2458   -4.2792    0.0000 C   0  0  0  0  0  0           0  0  0
  2  4  2  0     0  0
  3  1  1  0     0  0
  4  1  1  0     0  0
  5  3  2  0     0  0
  6 14  1  0     0  0
  7 10  1  0     0  0
  8  7  1  0     0  0
  9  6  1  0     0  0
 10  9  1  0     0  0
 11 18  1  0     0  0
 12 27  2  0     0  0
 13  3  1  0     0  0
 14 21  1  0     0  0
 15  1  1  0     0  0
 16 11  1  0     0  0
 17  5  1  0     0  0
 18  8  1  0     0  0
 19  2  1  0     0  0
 20 12  1  0     0  0
 21 13  2  0     0  0
 22  6  2  0     0  0
 23  7  2  0     0  0
 10 24  1  6     0  0
 25 11  2  0     0  0
 26 19  1  0     0  0
 27 48  1  0     0  0
 28 12  1  0     0  0
 29 21  1  0     0  0
 30 15  1  0     0  0
 31 24  1  0     0  0
 32 16  1  0     0  0
 33 40  2  0     0  0
 34 42  1  0     0  0
 35 33  1  0     0  0
 36 30  1  0     0  0
 37 31  2  0     0  0
 38 30  2  0     0  0
 39 31  1  0     0  0
 40 38  1  0     0  0
 41 36  2  0     0  0
 42 39  2  0     0  0
 43 37  1  0     0  0
 44 32  1  0     0  0
 45 26  1  0     0  0
 46 34  1  0     0  0
 18 47  1  1     0  0
 48 54  1  0     0  0
 49 44  1  0     0  0
 50 44  2  0     0  0
 51 46  1  0     0  0
 52 45  1  0     0  0
 53 45  1  0     0  0
 54 47  1  0     0  0
 55 50  1  0     0  0
 56 49  2  0     0  0
 57 53  1  0     0  0
 58 52  1  0     0  0
 59 55  2  0     0  0
  2  5  1  0     0  0
 41 33  1  0     0  0
 17 29  2  0     0  0
 57 58  1  0     0  0
 34 43  2  0     0  0
 59 56  1  0     0  0
M  END