
  SciTegic12231509382D

 24 26  0  0  0  0            999 V2000
   -1.3694    3.8844    0.0000 Br  0  0
   -1.3694    0.5844    0.0000 O   0  0
    2.2030   -0.6531    0.0000 O   0  0
    0.0595    0.5844    0.0000 N   0  0
    1.4885   -1.8906    0.0000 N   0  0
    0.7740   -0.6531    0.0000 C   0  0
   -0.6549    1.8219    0.0000 C   0  0
    1.4885   -1.0656    0.0000 C   0  0
   -1.3694    1.4094    0.0000 C   0  0
    0.7740    0.1719    0.0000 C   0  0
    0.0595    1.4094    0.0000 C   0  0
   -0.6549    2.6469    0.0000 C   0  0
    0.0595   -1.0656    0.0000 C   0  0
   -0.6549    0.1719    0.0000 C   0  0
   -1.3694    3.0594    0.0000 C   0  0
   -2.0839    1.8219    0.0000 C   0  0
   -0.6549   -0.6531    0.0000 C   0  0
   -2.0839    2.6469    0.0000 C   0  0
    2.2030   -2.3031    0.0000 C   0  0
    0.7740   -2.3031    0.0000 C   0  0
    2.2030   -3.1281    0.0000 C   0  0
    0.7740   -3.1281    0.0000 C   0  0
    1.4885   -3.5406    0.0000 C   0  0
   -2.0839    0.1719    0.0000 C   0  0
  1 15  1  0
  2  9  1  0
  2 24  1  0
  3  8  2  0
  4 10  1  0
  4 11  1  0
  4 14  1  0
  5  8  1  0
  5 19  1  0
  5 20  1  0
  6  8  1  0
  6 10  1  0
  6 13  1  0
  7  9  1  0
  7 11  1  0
  7 12  2  0
  9 16  2  0
 12 15  1  0
 13 17  1  0
 14 17  1  0
 15 18  2  0
 16 18  1  0
 19 21  1  0
 20 22  1  0
 21 23  1  0
 22 23  1  0
M  END