
  SciTegic10011413212D

 18 19  0  0  0  0            999 V2000
    4.6834   -2.9250    0.0000 C   0  0
    5.3978   -2.5125    0.0000 C   0  0
    4.6834   -3.7500    0.0000 O   0  0
    3.9689   -4.1625    0.0000 N   0  0
    3.9689   -4.9875    0.0000 C   0  0
    3.2544   -5.4000    0.0000 C   0  0
    2.5405   -4.9844    0.0000 C   0  0
    1.8265   -5.3962    0.0000 C   0  0
    1.8261   -6.2221    0.0000 C   0  0
    2.5456   -6.6344    0.0000 C   0  0
    3.2566   -6.2202    0.0000 C   0  0
    2.5484   -7.4595    0.0000 O   0  0
    1.1121   -6.6355    0.0000 O   0  0
    6.1109   -2.9296    0.0000 C   0  0
    6.8248   -2.5178    0.0000 C   0  0
    6.8253   -1.6919    0.0000 C   0  0
    6.1058   -1.2796    0.0000 C   0  0
    5.3948   -1.6938    0.0000 C   0  0
  1  2  1  0
  1  3  1  0
  3  4  1  0
  4  5  1  0
  5  6  1  0
  6  7  2  0
  7  8  1  0
  8  9  2  0
  9 10  1  0
 10 11  2  0
 11  6  1  0
 10 12  1  0
  9 13  1  0
  2 14  2  0
 14 15  1  0
 15 16  2  0
 16 17  1  0
 17 18  2  0
 18  2  1  0
M  END