
  SciTegic05071317052D

 30 29  0  0  0  0            999 V2000
   20.9877   -4.6209    0.0000 C   0  0
   20.9877   -5.4459    0.0000 C   0  0
   21.6996   -5.8542    0.0000 N   0  0
   22.4117   -5.4459    0.0000 C   0  0
   22.4117   -4.6209    0.0000 C   0  0
   21.6996   -4.2042    0.0000 N   0  0
   21.7000   -3.3789    0.0000 C   0  0
   22.3674   -2.8940    0.0000 N   0  0
   22.1126   -2.1089    0.0000 C   0  0
   21.2875   -2.1094    0.0000 C   0  0
   21.0327   -2.8940    0.0000 S   0  0
   22.5124   -1.3871    0.0000 C   0  0
   23.3372   -1.3725    0.0000 C   0  0
   23.7370   -0.6509    0.0000 N   0  0
   24.5619   -0.6362    0.0000 C   0  0
   23.3119    0.0605    0.0000 C   0  0
   21.6996   -6.6792    0.0000 C   0  0
   20.9852   -7.0917    0.0000 C   0  0
   20.9852   -7.9167    0.0000 C   0  0
   23.7117    0.7805    0.0000 C   0  0
   23.2866    1.4901    0.0000 C   0  0
   23.6863    2.2101    0.0000 C   0  0
   24.5105    2.2219    0.0000 C   0  0
   24.9102    2.9428    0.0000 C   0  0
   24.4851    3.6514    0.0000 C   0  0
   23.6560    3.6354    0.0000 C   0  0
   23.2600    2.9151    0.0000 C   0  0
   19.3979   -4.6875    0.0000 Br  0  0
   19.4759   -3.1821    0.0000 Br  0  0
   19.4170   -2.0920    0.0000 Br  0  0
  1  2  1  0
  1  6  1  0
  2  3  1  0
  3  4  1  0
  4  5  1  0
  5  6  1  0
  7  8  2  0
  8  9  1  0
  9 10  2  0
 10 11  1  0
 11  7  1  0
  6  7  1  0
  9 12  1  0
 12 13  1  0
 13 14  1  0
 14 15  1  0
 14 16  1  0
  3 17  1  0
 17 18  1  0
 18 19  1  0
 16 20  1  0
 20 21  1  0
 21 22  1  0
 22 23  2  0
 23 24  1  0
 24 25  2  0
 25 26  1  0
 26 27  2  0
 27 22  1  0
M  END