
  SciTegic12231509382D

 12 12  0  0  0  0            999 V2000
    1.2990   -0.7500    0.0000 C   0  0
   -1.2990    0.7500    0.0000 C   0  0
    2.5973   -1.5031    0.0000 C   0  0
    3.6331   -3.6060    0.0000 N   0  0
    1.2990    0.7500    0.0000 C   0  0
    0.0000   -1.5000    0.0000 C   0  0
    0.0000    1.5000    0.0000 C   0  0
   -1.2990   -0.7500    0.0000 C   0  0
   -2.6003    1.4977    0.0000 O   0  0
    2.5951   -3.0039    0.0000 C   0  0
   -3.6387    0.8962    0.0000 C   0  0
    1.5548   -3.6021    0.0000 C   0  0
  1  3  1  0
  1  5  1  0
  1  6  2  0
  2  7  1  0
  5  7  2  0
  2  8  2  0
  6  8  1  0
  2  9  1  0
  3 10  1  0
  4 10  1  0
  9 11  1  0
 10 12  1  0
M  END