
  SciTegic10311316212D

 31 33  0  0  0  0            999 V2000
   23.9731  -27.9620    0.0000 P   0  0
   23.1559  -27.9620    0.0000 O   0  0
   23.5645  -28.6697    0.0000 O   0  0
   24.6808  -28.3706    0.0000 C   0  0
   25.3885  -27.9620    0.0000 C   0  0
   23.9731  -27.1448    0.0000 O   0  0
   26.0962  -28.3706    0.0000 C   0  0
   26.8040  -27.9620    0.0000 N   0  0
   27.5117  -28.3706    0.0000 C   0  0
   26.8040  -27.1448    0.0000 O   0  0
   27.5117  -29.1878    0.0000 O   0  0
   24.6808  -29.1878    0.0000 C   0  0
   23.9708  -29.5945    0.0000 C   0  0
   23.9705  -30.4109    0.0000 C   0  0
   24.6787  -30.8204    0.0000 C   0  0
   25.3888  -30.4074    0.0000 C   0  0
   25.3856  -29.5923    0.0000 C   0  0
   26.0979  -30.8135    0.0000 Cl  0  0
   24.6798  -31.6375    0.0000 Cl  0  0
   28.2194  -27.9620    0.0000 C   0  0
   28.9259  -28.3748    0.0000 C   0  0
   29.6331  -27.9669    0.0000 C   0  0
   29.6335  -27.1488    0.0000 C   0  0
   28.9209  -26.7404    0.0000 C   0  0
   28.2165  -27.1506    0.0000 C   0  0
   30.3407  -26.7393    0.0000 C   0  0
   31.0490  -27.1469    0.0000 N   0  0
   31.1373  -27.9549    0.0000 C   0  0
   31.9369  -28.1238    0.0000 N   0  0
   32.3446  -27.4155    0.0000 C   0  0
   31.7969  -26.8090    0.0000 N   0  0
  2  1  1  0
  1  3  1  0
  4  5  1  0
  4  1  1  0
  1  6  2  0
  5  7  1  0
  7  8  1  0
  8  9  1  0
  8 10  1  0
  9 11  2  0
  4 12  1  0
 12 13  2  0
 13 14  1  0
 14 15  2  0
 15 16  1  0
 16 17  2  0
 17 12  1  0
 16 18  1  0
 15 19  1  0
  9 20  1  0
 20 21  2  0
 21 22  1  0
 22 23  2  0
 23 24  1  0
 24 25  2  0
 25 20  1  0
 23 26  1  0
 26 27  1  0
 27 28  1  0
 28 29  2  0
 29 30  1  0
 30 31  2  0
 31 27  1  0
M  END