
          08180812492D 1   1.00000     0.00000     0

 69 79  0     1  0            999 V2000
   -4.9507    0.4252    0.0000 C   0  0  0  0  0  0           0  0  0
   -5.3803   -0.2819    0.0000 C   0  0  0  0  0  0           0  0  0
   -4.9828   -1.0053    0.0000 C   0  0  0  0  0  0           0  0  0
   -4.1559   -1.0230    0.0000 C   0  0  0  0  0  0           0  0  0
   -4.1279    0.4095    0.0000 C   0  0  0  0  0  0           0  0  0
   -3.7228   -0.3128    0.0000 C   0  0  0  0  0  0           0  0  0
   -2.8798    1.1095    0.0000 C   0  0  2  0  0  0           0  0  0
   -3.7096    1.1215    0.0000 C   0  0  0  0  0  0           0  0  0
   -2.4747    0.3872    0.0000 C   0  0  1  0  0  0           0  0  0
   -2.8971   -0.3269    0.0000 C   0  0  2  0  0  0           0  0  0
   -2.4921   -1.0457    0.0000 C   0  0  2  0  0  0           0  0  0
   -1.6632   -1.0567    0.0000 C   0  0  2  0  0  0           0  0  0
   -1.2408   -0.3427    0.0000 C   0  0  0  0  0  0           0  0  0
   -1.6474    0.3824    0.0000 C   0  0  0  0  0  0           0  0  0
   -3.4458   -1.4333    0.0000 O   0  0  0  0  0  0           0  0  0
   -2.0667   -0.3250    0.0000 O   0  0  0  0  0  0           0  0  0
   -2.6708    1.9125    0.0000 N   0  0  3  0  0  0           0  0  0
   -3.1167    0.4750    0.0000 C   0  0  0  0  0  0           0  0  0
   -2.5333    1.0625    0.0000 C   0  0  0  0  0  0           0  0  0
   -3.4708    1.7000    0.0000 H   0  0  0  0  0  0           0  0  0
   -2.6320    2.7366    0.0000 C   0  0  0  0  0  0           0  0  0
   -1.8989    3.1150    0.0000 C   0  0  3  0  0  0           0  0  0
   -1.0762    3.0735    0.0000 C   0  0  0  0  0  0           0  0  0
   -1.4545    3.8066    0.0000 C   0  0  0  0  0  0           0  0  0
   -5.4104   -1.7109    0.0000 O   0  0  0  0  0  0           0  0  0
   -1.2593   -1.7761    0.0000 N   0  0  0  0  0  0           0  0  0
   -0.4343   -1.7860    0.0000 C   0  0  0  0  0  0           0  0  0
   -0.0304   -2.5053    0.0000 C   0  0  0  0  0  0           0  0  0
   -0.0133   -1.0765    0.0000 O   0  0  0  0  0  0           0  0  0
    0.7945   -2.5152    0.0000 C   0  0  2  0  0  0           0  0  0
    1.1930   -3.2353    0.0000 O   0  0  0  0  0  0           0  0  0
    2.0143   -3.2471    0.0000 C   0  0  1  0  0  0           0  0  0
    2.4392   -2.5395    0.0000 C   0  0  2  0  0  0           0  0  0
    2.0365   -1.8183    0.0000 C   0  0  1  0  0  0           0  0  0
    1.2090   -1.8048    0.0000 C   0  0  1  0  0  0           0  0  0
    0.8040   -1.0860    0.0000 O   0  0  0  0  0  0           0  0  0
    2.4600   -1.1103    0.0000 O   0  0  0  0  0  0           0  0  0
    3.2641   -2.5525    0.0000 O   0  0  0  0  0  0           0  0  0
    2.4156   -3.9680    0.0000 C   0  0  0  0  0  0           0  0  0
    1.9919   -4.6759    0.0000 O   0  0  0  0  0  0           0  0  0
    1.2240   -0.3759    0.0000 C   0  0  0  0  0  0           0  0  0
    0.8189    0.3428    0.0000 C   0  0  0  0  0  0           0  0  0
    1.2423    1.0487    0.0000 C   0  0  0  0  0  0           0  0  0
    0.8379    1.7670    0.0000 C   0  0  0  0  0  0           0  0  0
    0.0121    1.7760    0.0000 C   0  0  0  0  0  0           0  0  0
   -0.4077    1.0609    0.0000 C   0  0  0  0  0  0           0  0  0
   -0.0010    0.3456    0.0000 C   0  0  0  0  0  0           0  0  0
    3.2849   -1.1230    0.0000 C   0  0  0  0  0  0           0  0  0
    3.7083   -0.4149    0.0000 C   0  0  0  0  0  0           0  0  0
    4.5318   -0.4303    0.0000 C   0  0  0  0  0  0           0  0  0
    4.9552    0.2769    0.0000 C   0  0  0  0  0  0           0  0  0
    4.5536    0.9986    0.0000 C   0  0  0  0  0  0           0  0  0
    3.7244    1.0087    0.0000 C   0  0  0  0  0  0           0  0  0
    3.3048    0.3009    0.0000 C   0  0  0  0  0  0           0  0  0
    3.6653   -3.2734    0.0000 C   0  0  0  0  0  0           0  0  0
    4.4902   -3.2863    0.0000 C   0  0  0  0  0  0           0  0  0
    4.8857   -4.0082    0.0000 C   0  0  0  0  0  0           0  0  0
    5.7098   -4.0215    0.0000 C   0  0  0  0  0  0           0  0  0
    6.1343   -3.3131    0.0000 C   0  0  0  0  0  0           0  0  0
    5.7287   -2.5898    0.0000 C   0  0  0  0  0  0           0  0  0
    4.9059   -2.5800    0.0000 C   0  0  0  0  0  0           0  0  0
    2.3931   -5.3967    0.0000 C   0  0  0  0  0  0           0  0  0
    1.9694   -6.1046    0.0000 C   0  0  0  0  0  0           0  0  0
    1.1440   -6.0862    0.0000 C   0  0  0  0  0  0           0  0  0
    0.7204   -6.7932    0.0000 C   0  0  0  0  0  0           0  0  0
    1.1216   -7.5151    0.0000 C   0  0  0  0  0  0           0  0  0
    1.9508   -7.5255    0.0000 C   0  0  0  0  0  0           0  0  0
    2.3707   -6.8178    0.0000 C   0  0  0  0  0  0           0  0  0
   -2.2833   -1.8375    0.0000 H   0  0  0  0  0  0           0  0  0
  4 15  1  0     0  0
 11 15  1  0     0  0
  5  8  1  0     0  0
 30 35  1  0     0  0
 31 32  1  0     0  0
 32 33  1  0     0  0
 33 34  1  0     0  0
 34 35  1  0     0  0
  9 16  1  1     0  0
 35 36  1  6     0  0
  6 10  1  0     0  0
 34 37  1  1     0  0
  7 17  1  0     0  0
 33 38  1  6     0  0
  9  7  1  0     0  0
 32 39  1  1     0  0
 10 18  1  1     0  0
 39 40  1  0     0  0
  7  8  1  0     0  0
 36 41  1  0     0  0
 18 19  1  0     0  0
 41 42  1  0     0  0
 19 17  1  0     0  0
 42 43  2  0     0  0
  9 10  1  0     0  0
 43 44  1  0     0  0
  7 20  1  6     0  0
 44 45  2  0     0  0
  4  6  1  0     0  0
 45 46  1  0     0  0
 17 21  1  0     0  0
 46 47  2  0     0  0
 47 42  1  0     0  0
  5  1  1  0     0  0
 37 48  1  0     0  0
 21 22  1  0     0  0
 48 49  1  0     0  0
 23 22  1  0     0  0
 49 50  2  0     0  0
 24 23  1  0     0  0
 50 51  1  0     0  0
 22 24  1  0     0  0
 51 52  2  0     0  0
  5  6  2  0     0  0
 52 53  1  0     0  0
 53 54  2  0     0  0
 54 49  1  0     0  0
  2  3  1  0     0  0
 38 55  1  0     0  0
  3 25  1  0     0  0
 55 56  1  0     0  0
  1  2  2  0     0  0
 56 57  2  0     0  0
 12 26  1  6     0  0
 57 58  1  0     0  0
  9 14  1  0     0  0
 58 59  2  0     0  0
 26 27  1  0     0  0
 59 60  1  0     0  0
 10 11  1  0     0  0
 60 61  2  0     0  0
 61 56  1  0     0  0
 27 28  1  0     0  0
 40 62  1  0     0  0
 11 12  1  0     0  0
 62 63  1  0     0  0
 27 29  2  0     0  0
 63 64  2  0     0  0
 12 13  1  0     0  0
 64 65  1  0     0  0
 30 28  1  1     0  0
 65 66  2  0     0  0
 30 31  1  0     0  0
 66 67  1  0     0  0
 13 14  1  0     0  0
 67 68  2  0     0  0
 68 63  1  0     0  0
  3  4  2  0     0  0
 11 69  1  1     0  0
M  END