
          11280715412D 1   1.00000     0.00000     0

 21 22  0     0  0            999 V2000
    3.0500   -3.6500    0.0000 C   0  0  0  0  0  0           0  0  0
    2.5750   -2.9750    0.0000 N   0  0  0  0  0  0           0  0  0
    2.5542   -4.3125    0.0000 N   0  0  0  0  0  0           0  0  0
    3.8750   -3.6667    0.0000 C   0  0  0  0  0  0           0  0  0
    1.7875   -3.2167    0.0000 C   0  0  0  0  0  0           0  0  0
    1.7750   -4.0417    0.0000 C   0  0  0  0  0  0           0  0  0
    8.8250   -3.7417    0.0000 N   0  0  0  0  0  0           0  0  0
    9.2417   -3.0292    0.0000 C   0  0  3  0  0  0           0  0  0
    4.2750   -4.3792    0.0000 C   0  0  0  0  0  0           0  0  0
    4.2917   -2.9542    0.0000 C   0  0  0  0  0  0           0  0  0
    6.3500   -3.7042    0.0000 O   0  0  0  0  0  0           0  0  0
    7.5750   -4.4375    0.0000 C   0  0  3  0  0  0           0  0  0
    5.5250   -3.6917    0.0000 C   0  0  0  0  0  0           0  0  0
    8.0000   -3.7292    0.0000 C   0  0  0  0  0  0           0  0  0
    6.7500   -4.4250    0.0000 C   0  0  0  0  0  0           0  0  0
    5.1167   -2.9667    0.0000 C   0  0  0  0  0  0           0  0  0
    5.1000   -4.4000    0.0000 C   0  0  0  0  0  0           0  0  0
    7.9792   -5.1542    0.0000 O   0  0  0  0  0  0           0  0  0
   10.0667   -3.0417    0.0000 C   0  0  0  0  0  0           0  0  0
    8.8417   -2.3125    0.0000 C   0  0  0  0  0  0           0  0  0
    9.6542   -2.3167    0.0000 C   0  0  0  0  0  0           0  0  0
  2  1  2  0     0  0
  3  1  1  0     0  0
  4  1  1  0     0  0
  5  2  1  0     0  0
  6  3  1  0     0  0
  7 14  1  0     0  0
  8  7  1  0     0  0
  9  4  2  0     0  0
 10  4  1  0     0  0
 11 13  1  0     0  0
 12 15  1  0     0  0
 13 16  1  0     0  0
 14 12  1  0     0  0
 15 11  1  0     0  0
 16 10  2  0     0  0
 17  9  1  0     0  0
 18 12  1  0     0  0
 19  8  1  0     0  0
 20  8  1  0     0  0
 21  8  1  0     0  0
  6  5  2  0     0  0
 13 17  2  0     0  0
M  END