
  SciTegic12231509382D

 21 23  0  0  0  0            999 V2000
    2.5889    0.0182    0.0000 C   0  0
    1.7138    1.2033    0.0000 N   0  0
    1.7138   -1.2033    0.0000 C   0  0
    0.2917    0.7475    0.0000 C   0  0
    0.2917   -0.7475    0.0000 C   0  0
   -3.6217    1.4865    0.0000 C   0  0
    8.5721    0.3971    0.0000 C   0  0
   -2.3155    0.7475    0.0000 C   0  0
   -1.0028    1.5132    0.0000 C   0  0
    4.0896    0.0290    0.0000 C   0  0
    7.0761    0.2776    0.0000 C   0  0
   -4.6560    0.8780    0.0000 N   0  0
    9.2536   -0.5906    0.0000 N   0  0
   -1.0028   -1.5132    0.0000 C   0  0
   -2.3155   -0.7475    0.0000 C   0  0
    4.9397   -1.2009    0.0000 C   0  0
    4.7275    1.3885    0.0000 C   0  0
    6.2225    1.5110    0.0000 C   0  0
    6.4347   -1.0783    0.0000 C   0  0
   -3.6319    2.6865    0.0000 N   0  0
    9.0871    1.4810    0.0000 N   0  0
  1  2  1  0
  1  3  2  0
  2  4  1  0
  3  5  1  0
  4  5  2  0
  6  8  1  0
  4  9  1  0
  8  9  2  0
  1 10  1  0
  7 11  1  0
  6 12  2  0
  7 13  2  0
  5 14  1  0
  8 15  1  0
 14 15  2  0
 10 16  2  0
 10 17  1  0
 11 18  1  0
 17 18  2  0
 11 19  2  0
 16 19  1  0
  6 20  1  0
  7 21  1  0
M  END