
          11280715192D 1   1.00000     0.00000     0

 48 51  0     1  0            999 V2000
    2.9917   -1.3000    0.0000 C   0  0  1  0  0  0           0  0  0
    3.6917   -1.7042    0.0000 C   0  0  1  0  0  0           0  0  0
    2.2750   -1.7042    0.0000 C   0  0  2  0  0  0           0  0  0
    2.2750   -2.5167    0.0000 C   0  0  1  0  0  0           0  0  0
    3.6917   -2.5167    0.0000 C   0  0  2  0  0  0           0  0  0
    2.9917   -0.4667    0.0000 C   0  0  0  0  0  0           0  0  0
    2.9917   -2.9292    0.0000 C   0  0  1  0  0  0           0  0  0
    4.4042   -1.3000    0.0000 O   0  0  0  0  0  0           0  0  0
    4.4042   -0.4667    0.0000 C   0  0  2  0  0  0           0  0  0
    3.7000   -4.1667    0.0000 C   0  0  0  0  0  0           0  0  0
    1.5667   -2.9292    0.0000 C   0  0  3  0  0  0           0  0  0
    3.6917   -0.0625    0.0000 C   0  0  0  0  0  0           0  0  0
    2.9917   -3.7542    0.0000 O   0  0  0  0  0  0           0  0  0
    1.5667   -1.3000    0.0000 C   0  0  2  0  0  0           0  0  0
    6.5542   -9.9125    0.0000 C   0  0  0  0  0  0           0  0  0
    2.2750   -0.0625    0.0000 O   0  0  0  0  0  0           0  0  0
    2.9917   -2.0792    0.0000 O   0  0  0  0  0  0           0  0  0
    5.1417   -0.9125    0.0000 C   0  0  0  0  0  0           0  0  0
    4.4042   -3.7542    0.0000 O   0  0  0  0  0  0           0  0  0
    0.8542   -2.5167    0.0000 C   0  0  0  0  0  0           0  0  0
    5.8417  -10.3167    0.0000 O   0  0  0  0  0  0           0  0  0
    0.8542   -1.7042    0.0000 C   0  0  0  0  0  0           0  0  0
    3.7000   -4.9792    0.0000 N   0  0  0  0  0  0           0  0  0
    3.6917   -0.9292    0.0000 C   0  0  0  0  0  0           0  0  0
    4.4042   -2.9292    0.0000 O   0  0  0  0  0  0           0  0  0
    2.2750   -0.8792    0.0000 C   0  0  0  0  0  0           0  0  0
    5.9292   -0.5417    0.0000 C   0  0  0  0  0  0           0  0  0
    6.5542   -9.0917    0.0000 N   0  0  0  0  0  0           0  0  0
    7.2542  -10.3167    0.0000 C   0  0  0  0  0  0           0  0  0
    9.3792  -12.3625    0.0000 C   0  0  0  0  0  0           0  0  0
    7.9667  -11.5417    0.0000 C   0  0  0  0  0  0           0  0  0
    1.5667   -0.4667    0.0000 O   0  0  0  0  0  0           0  0  0
    7.2542  -11.1375    0.0000 C   0  0  0  0  0  0           0  0  0
    8.6667  -12.7667    0.0000 C   0  0  0  0  0  0           0  0  0
    9.3750  -11.5417    0.0000 C   0  0  0  0  0  0           0  0  0
    7.9667  -12.3625    0.0000 C   0  0  0  0  0  0           0  0  0
    8.6667  -11.1375    0.0000 C   0  0  0  0  0  0           0  0  0
   10.0792  -12.7667    0.0000 O   0  0  0  0  0  0           0  0  0
    5.1250   -0.0542    0.0000 C   0  0  0  0  0  0           0  0  0
    0.9500   -3.3792    0.0000 C   0  0  0  0  0  0           0  0  0
    1.5667   -3.7542    0.0000 C   0  0  0  0  0  0           0  0  0
    4.4042   -5.3917    0.0000 C   0  0  0  0  0  0           0  0  0
    5.8375   -8.6792    0.0000 C   0  0  0  0  0  0           0  0  0
    5.8375   -7.8542    0.0000 C   0  0  0  0  0  0           0  0  0
    4.4042   -6.2042    0.0000 C   0  0  0  0  0  0           0  0  0
    5.1250   -6.6167    0.0000 C   0  0  0  0  0  0           0  0  0
    5.1250   -7.4417    0.0000 C   0  0  0  0  0  0           0  0  0
    2.2750   -3.3167    0.0000 H   0  0  0  0  0  0           0  0  0
  2  1  1  0     0  0
  3  1  1  0     0  0
  4  3  1  0     0  0
  5  2  1  0     0  0
  6  1  1  0     0  0
  7  4  1  0     0  0
  8  2  1  0     0  0
  9 12  1  0     0  0
 10 13  1  0     0  0
 11  4  1  0     0  0
 12  6  1  0     0  0
  7 13  1  1     0  0
 14  3  1  0     0  0
 15 28  1  0     0  0
 16  6  2  0     0  0
  1 17  1  6     0  0
  9 18  1  6     0  0
 19 10  2  0     0  0
 20 22  1  0     0  0
 21 15  2  0     0  0
 22 14  1  0     0  0
 23 10  1  0     0  0
  2 24  1  1     0  0
  5 25  1  1     0  0
  3 26  1  1     0  0
 27 18  2  0     0  0
 28 43  1  0     0  0
 29 15  1  0     0  0
 30 35  1  0     0  0
 31 33  1  0     0  0
 14 32  1  6     0  0
 33 29  1  0     0  0
 34 36  1  0     0  0
 35 37  2  0     0  0
 36 31  2  0     0  0
 37 31  1  0     0  0
 38 30  1  0     0  0
  9 39  1  1     0  0
 11 40  1  0     0  0
 11 41  1  0     0  0
 42 23  1  0     0  0
 43 44  1  0     0  0
 44 47  1  0     0  0
 45 42  1  0     0  0
 46 45  1  0     0  0
 47 46  1  0     0  0
  4 48  1  6     0  0
  9  8  1  0     0  0
  7  5  1  0     0  0
 20 11  1  0     0  0
 30 34  2  0     0  0
M  END