
  CDK    12/20/10,14:45

 29 31  0  0  0  0  0  0  0  0999 V2000
   -1.9833   -7.7958    0.0000 N   0  0  0  0  0  0  0  0  0  0  0  0
   -2.7000   -8.2042    0.0000 C   0  0  0  0  0  0  0  0  0  0  0  0
   -1.9792   -6.9708    0.0000 C   0  0  0  0  0  0  0  0  0  0  0  0
   -2.7042   -9.0292    0.0000 C   0  0  0  0  0  0  0  0  0  0  0  0
   -1.2708   -8.2125    0.0000 C   0  0  0  0  0  0  0  0  0  0  0  0
   -3.8417  -10.1500    0.0000 C   0  0  0  0  0  0  0  0  0  0  0  0
   -3.4250   -9.4375    0.0000 C   0  0  0  0  0  0  0  0  0  0  0  0
   -1.2583   -6.5667    0.0000 C   0  0  0  0  0  0  0  0  0  0  0  0
   -2.6917   -6.5542    0.0000 C   0  0  0  0  0  0  0  0  0  0  0  0
   -4.6667  -10.1417    0.0000 C   0  0  0  0  0  0  0  0  0  0  0  0
   -3.4333  -10.8625    0.0000 C   0  0  0  0  0  0  0  0  0  0  0  0
   -0.5542   -7.8083    0.0000 C   0  0  0  0  0  0  0  0  0  0  0  0
   -0.5458   -6.9792    0.0000 C   0  0  0  0  0  0  0  0  0  0  0  0
   -3.4125   -7.7833    0.0000 O   0  0  0  0  0  0  0  0  0  0  0  0
   -1.9958   -9.4458    0.0000 N   0  0  0  0  0  0  0  0  0  0  0  0
   -3.8458  -11.5708    0.0000 C   0  0  0  0  0  0  0  0  0  0  0  0
   -5.0833  -10.8542    0.0000 C   0  0  0  0  0  0  0  0  0  0  0  0
   -4.6750  -11.5667    0.0000 C   0  0  0  0  0  0  0  0  0  0  0  0
   -3.4083   -6.9583    0.0000 O   0  0  0  0  0  0  0  0  0  0  0  0
   -2.6833   -5.7333    0.0000 N   0  0  0  0  0  0  0  0  0  0  0  0
   -5.0917  -12.2833    0.0000 O   0  0  0  0  0  0  0  0  0  0  0  0
   -2.6125  -10.8625    0.0000 C   0  0  0  0  0  0  0  0  0  0  0  0
   -5.0750   -9.4250    0.0000 C   0  0  0  0  0  0  0  0  0  0  0  0
    0.1708   -6.5750    0.0000 C   0  0  0  0  0  0  0  0  0  0  0  0
    0.1583   -8.2250    0.0000 C   0  0  0  0  0  0  0  0  0  0  0  0
   -1.2833   -9.0375    0.0000 C   0  0  0  0  0  0  0  0  0  0  0  0
   -1.9958  -10.2667    0.0000 C   0  0  0  0  0  0  0  0  0  0  0  0
    0.8708   -7.8167    0.0000 C   0  0  0  0  0  0  0  0  0  0  0  0
    0.8792   -6.9917    0.0000 C   0  0  0  0  0  0  0  0  0  0  0  0
  2  1  1  0  0  0  0 
  3  1  1  0  0  0  0 
  4  2  1  0  0  0  0 
  5  1  1  0  0  0  0 
  6  7  1  0  0  0  0 
  7  4  1  0  0  0  0 
  8  3  1  0  0  0  0 
  3  9  1  6  0  0  0 
 10  6  2  0  0  0  0 
 11  6  1  0  0  0  0 
 12  5  1  0  0  0  0 
 13 12  2  0  0  0  0 
 14  2  2  0  0  0  0 
  4 15  1  1  0  0  0 
 16 11  2  0  0  0  0 
 17 10  1  0  0  0  0 
 18 16  1  0  0  0  0 
 19  9  2  0  0  0  0 
 20  9  1  0  0  0  0 
 21 18  1  0  0  0  0 
 22 11  1  0  0  0  0 
 23 10  1  0  0  0  0 
 24 13  1  0  0  0  0 
 25 12  1  0  0  0  0 
 26 15  1  0  0  0  0 
 27 15  1  0  0  0  0 
 28 25  2  0  0  0  0 
 29 24  2  0  0  0  0 
 13  8  1  0  0  0  0 
 28 29  1  0  0  0  0 
 18 17  2  0  0  0  0 
M  END