
          11280716012D 1   1.00000     0.00000     0

 70 76  0     1  0            999 V2000
   12.2158  -20.2066    0.0000 N   0  0  0  0  0  0           0  0  0
   12.1878  -17.7308    0.0000 C   0  0  0  0  0  0           0  0  0
   11.4584  -16.5037    0.0000 N   0  0  0  0  0  0           0  0  0
   12.1774  -16.9083    0.0000 C   0  0  1  0  0  0           0  0  0
   12.8880  -16.4868    0.0000 C   0  0  0  0  0  0           0  0  0
   12.8796  -15.6606    0.0000 C   0  0  0  0  0  0           0  0  0
   12.1606  -15.2560    0.0000 C   0  0  0  0  0  0           0  0  0
   12.1502  -14.4334    0.0000 C   0  0  0  0  0  0           0  0  0
   12.8607  -14.0119    0.0000 C   0  0  0  0  0  0           0  0  0
   12.8524  -13.1857    0.0000 O   0  0  0  0  0  0           0  0  0
   13.5797  -14.4165    0.0000 C   0  0  0  0  0  0           0  0  0
   13.5881  -15.2427    0.0000 C   0  0  0  0  0  0           0  0  0
   12.9068  -18.1355    0.0000 O   0  0  0  0  0  0           0  0  0
   11.4772  -18.1524    0.0000 N   0  0  3  0  0  0           0  0  0
   14.3071  -15.6473    0.0000 C   0  0  0  0  0  0           0  0  0
   11.4493  -15.6787    0.0000 C   0  0  0  0  0  0           0  0  0
   10.7593  -17.7438    0.0000 C   0  0  0  0  0  0           0  0  0
   10.7766  -19.3952    0.0000 C   0  0  0  0  0  0           0  0  0
   11.4913  -18.9755    0.0000 C   0  0  3  0  0  0           0  0  0
   10.0563  -18.9884    0.0000 C   0  0  0  0  0  0           0  0  0
   10.0512  -18.1656    0.0000 C   0  0  0  0  0  0           0  0  0
    9.3372  -17.7605    0.0000 C   0  0  0  0  0  0           0  0  0
    8.6279  -18.1770    0.0000 C   0  0  0  0  0  0           0  0  0
    8.6371  -19.0029    0.0000 C   0  0  0  0  0  0           0  0  0
    9.3516  -19.4043    0.0000 C   0  0  0  0  0  0           0  0  0
   12.2107  -19.3792    0.0000 C   0  0  0  0  0  0           0  0  0
   12.9201  -18.9580    0.0000 O   0  0  0  0  0  0           0  0  0
    7.2099  -20.6015    0.0000 C   0  0  0  0  0  0           0  0  0
    7.2099  -21.4306    0.0000 C   0  0  0  0  0  0           0  0  0
    7.9261  -21.8431    0.0000 N   0  0  0  0  0  0           0  0  0
    8.6381  -21.4306    0.0000 C   0  0  0  0  0  0           0  0  0
    8.6381  -20.6015    0.0000 C   0  0  0  0  0  0           0  0  0
    7.9261  -20.1848    0.0000 N   0  0  0  0  0  0           0  0  0
    9.3561  -21.8483    0.0000 O   0  0  0  0  0  0           0  0  0
    6.4900  -20.1911    0.0000 C   0  0  0  0  0  0           0  0  0
    9.3579  -20.1911    0.0000 C   0  0  0  0  0  0           0  0  0
    6.4918  -21.8483    0.0000 C   0  0  0  0  0  0           0  0  0
    5.7760  -21.4382    0.0000 C   0  0  0  0  0  0           0  0  0
   10.0701  -20.6074    0.0000 C   0  0  0  0  0  0           0  0  0
   10.7868  -20.1988    0.0000 C   0  0  0  0  0  0           0  0  0
   11.4991  -20.6152    0.0000 C   0  0  0  0  0  0           0  0  0
    5.0629  -21.8530    0.0000 C   0  0  0  0  0  0           0  0  0
    5.0656  -22.6780    0.0000 C   0  0  0  0  0  0           0  0  0
    4.3525  -23.0929    0.0000 N   0  0  0  0  0  0           0  0  0
    2.2221  -21.8302    0.0000 C   0  0  0  0  0  0           0  0  0
    0.7946  -21.8143    0.0000 N   0  0  0  0  0  0           0  0  0
    1.5143  -21.4110    0.0000 C   0  0  1  0  0  0           0  0  0
    1.5242  -20.5848    0.0000 C   0  0  0  0  0  0           0  0  0
    0.8144  -20.1620    0.0000 C   0  0  0  0  0  0           0  0  0
    0.0947  -20.5652    0.0000 C   0  0  0  0  0  0           0  0  0
   -0.6130  -20.1460    0.0000 C   0  0  0  0  0  0           0  0  0
   -0.6060  -19.3147    0.0000 C   0  0  0  0  0  0           0  0  0
   -1.3158  -18.8918    0.0000 O   0  0  0  0  0  0           0  0  0
    0.1137  -18.9114    0.0000 C   0  0  0  0  0  0           0  0  0
    0.8264  -19.3394    0.0000 C   0  0  0  0  0  0           0  0  0
    2.9418  -21.4269    0.0000 O   0  0  0  0  0  0           0  0  0
    2.2121  -22.6563    0.0000 N   0  0  3  0  0  0           0  0  0
    1.5461  -18.9362    0.0000 C   0  0  0  0  0  0           0  0  0
    0.0855  -21.3926    0.0000 C   0  0  0  0  0  0           0  0  0
    1.4896  -23.0567    0.0000 C   0  0  0  0  0  0           0  0  0
    2.9086  -23.9015    0.0000 C   0  0  0  0  0  0           0  0  0
    2.9222  -23.0728    0.0000 C   0  0  3  0  0  0           0  0  0
    2.1864  -24.3047    0.0000 C   0  0  0  0  0  0           0  0  0
    1.4812  -23.8809    0.0000 C   0  0  0  0  0  0           0  0  0
    0.7637  -24.2797    0.0000 C   0  0  0  0  0  0           0  0  0
    0.7501  -25.1021    0.0000 C   0  0  0  0  0  0           0  0  0
    1.4601  -25.5241    0.0000 C   0  0  0  0  0  0           0  0  0
    2.1747  -25.1229    0.0000 C   0  0  0  0  0  0           0  0  0
    3.6415  -22.6686    0.0000 C   0  0  0  0  0  0           0  0  0
    3.6510  -21.8437    0.0000 O   0  0  0  0  0  0           0  0  0
 31 34  1  0     0  0
  2  4  1  0     0  0
 28 35  1  0     0  0
  4  5  1  0     0  0
 32 36  1  0     0  0
 14 19  1  0     0  0
 29 37  1  0     0  0
 17 21  1  0     0  0
 37 38  1  0     0  0
 20 18  1  0     0  0
 36 39  1  0     0  0
 18 19  1  0     0  0
 39 40  1  0     0  0
  5  6  1  0     0  0
 40 41  1  0     0  0
 41  1  1  0     0  0
  6  7  2  0     0  0
 38 42  1  0     0  0
 20 21  2  0     0  0
 42 43  1  0     0  0
  7  8  1  0     0  0
 43 44  1  0     0  0
 21 22  1  0     0  0
  8  9  2  0     0  0
 22 23  2  0     0  0
  9 10  1  0     0  0
 23 24  1  0     0  0
  9 11  1  0     0  0
 24 25  2  0     0  0
 25 20  1  0     0  0
 11 12  2  0     0  0
 19 26  1  0     0  0
  6 12  1  0     0  0
 26 27  2  0     0  0
  1 26  1  0     0  0
 28 29  1  0     0  0
 47 46  1  1     0  0
 45 47  1  0     0  0
 47 48  1  0     0  0
 48 49  1  0     0  0
 49 50  2  0     0  0
 50 51  1  0     0  0
 51 52  2  0     0  0
 52 53  1  0     0  0
 52 54  1  0     0  0
 54 55  2  0     0  0
 49 55  1  0     0  0
 45 56  2  0     0  0
 45 57  1  0     0  0
 55 58  1  0     0  0
 50 59  1  0     0  0
  2 13  2  0     0  0
 57 60  1  0     0  0
  2 14  1  0     0  0
 12 15  1  0     0  0
  7 16  1  0     0  0
 57 62  1  0     0  0
 60 64  1  0     0  0
 63 61  1  0     0  0
 61 62  1  0     0  0
 14 17  1  0     0  0
 63 64  2  0     0  0
 28 33  2  0     0  0
 64 65  1  0     0  0
 29 30  2  0     0  0
 65 66  2  0     0  0
 30 31  1  0     0  0
 66 67  1  0     0  0
 31 32  2  0     0  0
 67 68  2  0     0  0
 68 63  1  0     0  0
 32 33  1  0     0  0
 62 69  1  0     0  0
  4  3  1  1     0  0
 69 70  2  0     0  0
 44 69  1  0     0  0
M  END