
  SciTegic07291412072D

 56 61  0  0  0  0            999 V2000
   -0.3687   -5.4267    0.0000 N   0  0
    1.8139   -5.4015    0.0000 N   0  0
    1.9605   -4.5896    0.0000 C   0  0
    0.4077   -5.1477    0.0000 C   0  0
    1.0375   -5.6805    0.0000 C   0  0  2  0  0  0
   -0.9985   -4.8939    0.0000 C   0  0  1  0  0  0
    2.7369   -4.3106    0.0000 N   0  0
   -0.5152   -6.2386    0.0000 C   0  0
    2.3192   -6.0537    0.0000 C   0  0
   -0.8520   -4.0820    0.0000 C   0  0
    1.0630   -6.5052    0.0000 C   0  0
    3.6598   -3.2197    0.0000 C   0  0
   -1.7749   -5.1729    0.0000 C   0  0
    5.6958   -4.0064    0.0000 N   0  0
    1.8551   -6.7358    0.0000 C   0  0
    2.8834   -3.4987    0.0000 C   0  0  2  0  0  0
    0.3641   -1.3673    0.0000 N   0  0
   -1.2916   -6.5176    0.0000 C   0  0
   -1.9214   -5.9848    0.0000 C   0  0
   -0.0756   -3.8030    0.0000 N   0  0
    3.8063   -2.4078    0.0000 N   0  0
   -0.4123   -1.6463    0.0000 C   0  0
    0.9939   -1.9002    0.0000 C   0  0  1  0  0  0
    1.3306   -4.0568    0.0000 O   0  0
    1.7703   -1.6211    0.0000 C   0  0
    0.5543   -4.3358    0.0000 O   0  0
    6.3257   -4.5393    0.0000 C   0  0
   -1.4818   -3.5491    0.0000 O   0  0
    4.4825   -3.2806    0.0000 O   0  0
    1.9168   -0.8093    0.0000 O   0  0
   -0.5589   -2.4582    0.0000 O   0  0
    2.4001   -2.1540    0.0000 C   0  0
    0.8474   -2.7121    0.0000 C   0  0
    3.1765   -1.8750    0.0000 C   0  0
    0.0710   -2.9911    0.0000 C   0  0
   -1.0421   -1.1135    0.0000 C   0  0
    4.9195   -4.2854    0.0000 C   0  0
   -1.8185   -1.3925    0.0000 C   0  0
   -2.4484   -0.8597    0.0000 C   0  0
    3.1420   -6.1146    0.0000 C   0  0
    3.5132   -4.0316    0.0000 C   0  0
    4.2896   -3.7526    0.0000 C   0  0
    2.2138   -7.4787    0.0000 C   0  0
   -2.6978   -6.2638    0.0000 C   0  0
   -1.4382   -7.3295    0.0000 C   0  0
   -2.3018   -0.0478    0.0000 C   0  0
   -3.2247   -1.1387    0.0000 C   0  0
    3.5006   -6.8575    0.0000 C   0  0
    3.0365   -7.5396    0.0000 C   0  0
   -2.2145   -7.6085    0.0000 C   0  0
   -2.8444   -7.0757    0.0000 C   0  0
   -3.8546   -0.6058    0.0000 C   0  0
   -2.9316    0.4851    0.0000 C   0  0
   -3.7080    0.2061    0.0000 C   0  0
    7.1021   -4.2602    0.0000 N   0  0
    6.1791   -5.3511    0.0000 N   0  0
  3  2  1  0
  4  1  1  0
  5  4  1  1
  6  1  1  0
  7  3  1  0
  8  1  1  0
  9  2  1  0
  6 10  1  6
 11  5  1  0
 12 16  1  0
 13  6  1  0
 14 37  1  0
 15 11  1  0
 16  7  1  0
 17 23  1  0
 18  8  1  0
 19 18  2  0
 20 10  1  0
 21 12  1  0
 22 17  1  0
 23 33  1  1
 24  3  2  0
 25 23  1  0
 26  4  2  0
 27 14  1  0
 28 10  2  0
 29 12  2  0
 30 25  2  0
 31 22  2  0
 32 25  1  0
 33 35  1  0
 34 32  1  0
 35 20  1  0
 36 22  1  0
 37 42  1  0
 38 36  1  0
 39 38  1  0
 40  9  1  0
 16 41  1  1
 42 41  1  0
 43 15  1  0
 44 19  1  0
 45 18  1  0
 46 39  1  0
 47 39  2  0
 48 40  1  0
 49 43  1  0
 50 45  2  0
 51 50  1  0
 52 47  1  0
 53 46  2  0
 54 52  2  0
 19 13  1  0
 15  9  1  0
 44 51  2  0
 49 48  1  0
 21 34  1  0
 54 53  1  0
 27 55  1  0
  2  5  1  0
 27 56  2  0
M  END