
  SciTegic12011114592D

 41 46  0  0  0  0            999 V2000
   -5.3195  -11.2330    0.0000 C   0  0
   -5.7388  -10.5224    0.0000 N   0  0
   -5.3299   -9.8081    0.0000 C   0  0
   -5.7457   -9.0997    0.0000 C   0  0
   -6.5717   -9.1032    0.0000 N   0  0
   -6.9805   -9.8214    0.0000 C   0  0
   -6.5645  -10.5362    0.0000 C   0  0
   -1.2880  -11.3506    0.0000 N   0  0
   -0.5727  -10.9408    0.0000 C   0  0
   -0.5699  -10.1149    0.0000 N   0  0
   -1.2882   -9.7004    0.0000 C   0  0
   -1.2887   -8.8753    0.0000 N   0  0
   -0.5740   -8.4623    0.0000 C   0  0
    0.1403  -11.3558    0.0000 S   0  0
    0.8563  -10.9457    0.0000 C   0  0
    1.5652  -11.3638    0.0000 C   0  0
    2.2806  -10.9544    0.0000 C   0  0
    2.2839  -10.1284    0.0000 C   0  0
    1.5657   -9.7136    0.0000 C   0  0
    0.8533  -10.1254    0.0000 C   0  0
    2.9992   -9.7174    0.0000 N   0  0
    3.7129  -10.1314    0.0000 C   0  0
    4.4284   -9.7204    0.0000 C   0  0
    3.7112  -10.9565    0.0000 O   0  0
    5.2501   -9.7189    0.0000 C   0  0
    4.8391   -9.0035    0.0000 C   0  0
    0.2117   -8.7104    0.0000 C   0  0
    0.6909   -8.0388    0.0000 C   0  0
    0.2000   -7.3755    0.0000 N   0  0
   -0.5823   -7.6372    0.0000 N   0  0
    1.5158   -8.0316    0.0000 C   0  0
   -2.7749   -9.8613    0.0000 C   0  0
   -3.2561  -10.5225    0.0000 C   0  0
   -2.7758  -11.1843    0.0000 C   0  0
   -1.9980  -10.9322    0.0000 N   0  0
   -1.9974  -10.1144    0.0000 C   0  0
   -4.0811  -10.5220    0.0000 N   0  0
   -4.4941  -11.2362    0.0000 C   0  0
   -4.0820  -11.9510    0.0000 O   0  0
   -5.7301  -11.9487    0.0000 O   0  0
   -6.9885   -8.3910    0.0000 C   0  0
 19 20  2  0
 20 15  1  0
  9 10  1  0
 18 21  1  0
  2  7  1  0
 21 22  1  0
 10 11  2  0
 22 23  1  0
 11 36  1  0
 22 24  2  0
 25 23  1  0
 26 25  1  0
 23 26  1  0
  3  4  1  0
 11 12  1  0
 29 30  1  0
  4  5  1  0
 27 28  2  0
 12 13  1  0
  5  6  1  0
  9 14  1  0
 13 27  1  0
 28 29  1  0
 30 13  2  0
  6  7  1  0
 28 31  1  0
 35 36  1  0
 14 15  1  0
  2  3  1  0
 33 34  2  0
 15 16  2  0
 35  8  1  0
 16 17  1  0
 32 33  1  0
 34 35  1  0
 36 32  2  0
 33 37  1  0
 17 18  2  0
 37 38  1  0
 38  1  1  0
  8  9  2  0
 38 39  2  0
 18 19  1  0
  1 40  2  0
  1  2  1  0
  5 41  1  0
M  END