
  SciTegic05071317012D

 27 28  0  0  0  0            999 V2000
   13.8038  -10.7622    0.0000 C   0  0  2  0  0  0
   14.2209  -11.4739    0.0000 O   0  0
   15.0417  -11.4661    0.0000 C   0  0
   15.4495  -10.7537    0.0000 C   0  0  1  0  0  0
   15.0322  -10.0420    0.0000 C   0  0
   14.2073  -10.0426    0.0000 O   0  0
   16.2745  -10.7495    0.0000 S   0  3
   16.6907  -11.4617    0.0000 C   0  0
   16.6832  -10.0328    0.0000 C   0  0
   12.9788  -10.7701    0.0000 C   0  0
   12.5595  -10.0596    0.0000 C   0  0
   12.5731  -11.4885    0.0000 C   0  0
   12.9685   -9.3434    0.0000 C   0  0
   12.5499   -8.6334    0.0000 C   0  0
   11.7240   -8.6407    0.0000 C   0  0
   11.3186   -9.3642    0.0000 C   0  0
   11.7396  -10.0713    0.0000 C   0  0
   11.7480  -11.4912    0.0000 C   0  0
   11.3425  -12.2087    0.0000 C   0  0
   11.7619  -12.9202    0.0000 C   0  0
   12.5911  -12.9096    0.0000 C   0  0
   12.9929  -12.1915    0.0000 C   0  0
   18.6266  -10.1178    0.0000 Cl  0  0
   18.6266  -10.9428    0.0000 O   0  0
   17.8016  -10.1178    0.0000 O   0  0
   18.6266   -9.2928    0.0000 O   0  5
   19.4516  -10.1178    0.0000 O   0  0
  1  2  1  0
  1  6  1  0
  2  3  1  0
  3  4  1  0
  4  5  1  0
  5  6  1  0
  4  7  1  1
  7  8  1  0
  7  9  1  0
  1 10  1  1
 10 11  1  0
 10 12  1  0
 11 13  2  0
 13 14  1  0
 14 15  2  0
 15 16  1  0
 16 17  2  0
 17 11  1  0
 12 18  2  0
 18 19  1  0
 19 20  2  0
 20 21  1  0
 21 22  2  0
 22 12  1  0
 23 24  2  0
 23 25  2  0
 23 26  1  0
 23 27  2  0
M  CHG  2   7   1  26  -1
M  END