
          11280715042D 1   1.00000     0.00000     0

 16 16  0     0  0            999 V2000
   -0.6583    0.2333    0.0000 S   0  0  3  0  0  0           0  0  0
   -4.3458    0.0708    0.0000 N   0  0  0  0  0  0           0  0  0
   -4.3000    1.0458    0.0000 N   0  0  0  0  0  0           0  0  0
   -4.6750    0.5708    0.0000 C   0  0  0  0  0  0           0  0  0
   -3.7708    0.2333    0.0000 C   0  0  0  0  0  0           0  0  0
   -0.3208    0.9333    0.0000 O   0  0  0  0  0  0           0  0  0
   -1.0083    0.9333    0.0000 O   0  0  0  0  0  0           0  0  0
   -1.1750   -0.0667    0.0000 N   0  0  0  0  0  0           0  0  0
   -3.7375    0.8333    0.0000 C   0  0  0  0  0  0           0  0  0
   -0.1208   -0.0417    0.0000 C   0  0  3  0  0  0           0  0  0
   -3.2500   -0.0667    0.0000 C   0  0  0  0  0  0           0  0  0
   -1.6958    0.2333    0.0000 C   0  0  0  0  0  0           0  0  0
   -0.0958   -0.6417    0.0000 C   0  0  0  0  0  0           0  0  0
    0.3792    0.2750    0.0000 C   0  0  0  0  0  0           0  0  0
   -2.7333    0.2333    0.0000 C   0  0  0  0  0  0           0  0  0
   -2.2125   -0.0667    0.0000 C   0  0  0  0  0  0           0  0  0
  2  5  1  0     0  0
  3  9  1  0     0  0
  4  2  2  0     0  0
  5 11  1  0     0  0
  6  1  2  0     0  0
  7  1  2  0     0  0
  8  1  1  0     0  0
  9  5  2  0     0  0
 10  1  1  0     0  0
 11 15  1  0     0  0
 12  8  1  0     0  0
 13 10  1  0     0  0
 14 10  1  0     0  0
 15 16  1  0     0  0
 16 12  1  0     0  0
  3  4  1  0     0  0
M  END