
  SciTegic11201309402D

 77 82  0  0  1  0            999 V2000
    0.3793  -10.4615    0.0000 C   0  0
    1.1754  -10.2448    0.0000 C   0  0
    1.3845   -9.4514    0.0000 C   0  0
    0.8008   -8.8692    0.0000 C   0  0
    0.0048   -9.0858    0.0000 C   0  0
   -0.2077   -9.8849    0.0000 C   0  0
    3.6116  -12.9951    0.0000 C   0  0
    4.4355  -12.9486    0.0000 C   0  0
    4.6516  -12.1516    0.0000 C   0  0  2  0  0  0
    3.9540  -11.7041    0.0000 N   0  0
    3.3154  -12.2268    0.0000 C   0  0
    5.4207  -11.8541    0.0000 C   0  0
    6.0644  -12.3759    0.0000 N   0  0
    5.5461  -11.0388    0.0000 O   0  0
    6.8335  -12.0786    0.0000 C   0  0  2  0  0  0
    7.4730  -12.5962    0.0000 C   0  0
    6.9588  -11.2633    0.0000 C   0  0
    7.7321  -10.9658    0.0000 C   0  0
    7.8575  -10.1507    0.0000 C   0  0
    8.3716  -11.4836    0.0000 C   0  0
    7.3476  -13.4114    0.0000 O   0  0
    8.2463  -12.2987    0.0000 N   0  0
    8.8857  -12.8165    0.0000 C   0  0
    9.6590  -12.5190    0.0000 C   0  0
   10.2985  -13.0366    0.0000 O   0  0
    9.7844  -11.7037    0.0000 N   0  0
   -1.7601   -8.4074    0.0000 C   0  0
   -1.7601   -9.2327    0.0000 C   0  0  1  0  0  0
   -1.0497   -9.6389    0.0000 N   0  0
   -0.3392   -9.2327    0.0000 C   0  0
   -0.3392   -8.4074    0.0000 C   0  0
   -1.0497   -7.9884    0.0000 N   0  0
   -2.4786   -7.9947    0.0000 O   0  0
   -1.0497   -7.1632    0.0000 C   0  0  2  0  0  0
   -0.3367   -6.7526    0.0000 C   0  0
   -1.7627   -6.7526    0.0000 C   0  0
   -1.7627   -5.9274    0.0000 C   0  0
   -1.0464   -5.5161    0.0000 C   0  0
   -1.0461   -4.6916    0.0000 C   0  0
   -1.7596   -4.2802    0.0000 C   0  0
   -2.4793   -4.6952    0.0000 C   0  0
   -2.4760   -5.5184    0.0000 C   0  0
   -2.4768   -9.6442    0.0000 C   0  0
   -3.1904   -9.2347    0.0000 C   0  0
   -3.1886   -8.4104    0.0000 C   0  0
   -3.9055   -7.9968    0.0000 C   0  0
   -4.6189   -8.4126    0.0000 C   0  0
   -4.6150   -9.2423    0.0000 C   0  0
   -3.9017   -9.6479    0.0000 C   0  0
    0.3805   -7.1632    0.0000 N   0  0
   -0.3367   -5.9274    0.0000 O   0  0
   -1.0497  -10.4642    0.0000 C   0  0
   -1.7627  -10.8789    0.0000 O   0  0
   -0.3367  -10.8789    0.0000 C   0  0
    1.0935   -6.7526    0.0000 C   0  0  2  0  0  0
    1.8107   -7.1632    0.0000 C   0  0
    1.0935   -5.9274    0.0000 C   0  0
    1.8107   -5.5127    0.0000 C   0  0
    1.8107   -4.6874    0.0000 C   0  0
    2.5238   -4.2769    0.0000 N   0  0
    1.0935   -4.2769    0.0000 O   0  0
    2.5238   -6.7526    0.0000 N   0  0
    3.2410   -7.1632    0.0000 C   0  0  1  0  0  0
    3.9540   -6.7526    0.0000 C   0  0
    4.6711   -7.1632    0.0000 C   0  0
    5.3841   -6.7526    0.0000 N   0  0
    4.6711   -7.9884    0.0000 O   0  0
    1.0935  -10.8789    0.0000 S   0  0
    1.8107   -7.9884    0.0000 O   0  0
    1.8107  -10.4642    0.0000 S   0  0
    2.5238  -10.8789    0.0000 C   0  0
    3.2410  -10.4642    0.0000 C   0  0  2  0  0  0
    3.9540  -10.8789    0.0000 C   0  0
    2.7373   -8.8179    0.0000 N   0  0
    4.6711  -10.4642    0.0000 O   0  0
    3.2410   -7.9884    0.0000 C   0  0
    4.1467   -8.3861    0.0000 O   0  0
  1  2  1  0
  1  6  1  0
  2  3  1  0
  3  4  1  0
  4  5  1  0
  5  6  1  0
 41 42  2  0
 42 37  1  0
 23 24  1  0
 28 43  1  1
 15 13  1  1
 43 44  1  0
 24 25  2  0
 44 45  2  0
 10 11  1  0
 45 46  1  0
 24 26  1  0
 46 47  2  0
 27 28  1  0
 47 48  1  0
 15 16  1  0
 48 49  2  0
 49 44  1  0
 11  7  1  0
 35 50  1  0
 15 17  1  0
 35 51  2  0
  7  8  1  0
 29 52  1  0
 17 18  1  0
 52 53  2  0
  9 12  1  6
 52 54  1  0
 27 32  1  0
 50 55  1  0
 28 29  1  0
 55 56  1  0
 29 30  1  0
 55 57  1  1
 56 69  2  0
 30 31  1  0
 57 58  1  0
 31 32  1  0
 58 59  1  0
 18 19  1  0
 59 60  1  0
 27 33  2  0
 59 61  2  0
 56 62  1  0
 32 34  1  0
 62 63  1  0
 18 20  1  0
 63 64  1  1
 34 35  1  0
 64 65  1  0
 12 13  1  0
 65 66  1  0
 34 36  1  1
 65 67  2  0
 16 21  2  0
 54  1  1  0
 36 37  1  0
  1 68  1  0
  8  9  1  0
 37 38  2  0
 68 70  1  0
 16 22  1  0
 70 71  1  0
 38 39  1  0
 72 71  1  0
 12 14  2  0
 72 73  1  1
 39 40  2  0
 72 74  1  0
 73 10  1  0
 22 23  1  0
 73 75  2  0
 40 41  1  0
 63 76  1  0
 76 74  1  0
  9 10  1  0
 76 77  2  0
M  END