
  SciTegic01161211242D

 33 34  0  0  0  0            999 V2000
    1.2990   -0.7500    0.0000 C   0  0
    1.2990    0.7500    0.0000 C   0  0
    0.0000   -1.5000    0.0000 C   0  0
    0.0000    1.5000    0.0000 C   0  0
  -10.4003   -1.4842    0.0000 O   0  0
  -11.6989   -0.7319    0.0000 C   0  0
   -1.2990   -0.7500    0.0000 C   0  0
   -7.8003   -1.4887    0.0000 C   0  0
   -9.0990   -0.7365    0.0000 C   0  0
   -1.2990    0.7500    0.0000 C   0  0
    2.5973   -1.5031    0.0000 O   0  0
   -5.2003   -1.4932    0.0000 N   0  0
  -14.2919    0.7771    0.0000 C   0  0
    5.0973    0.0000    0.0000 Cl  0  0
  -13.0006   -1.4774    0.0000 C   0  0
  -11.6938    0.7681    0.0000 C   0  0
    2.5972    1.5031    0.0000 O   0  0
  -12.9903    1.5226    0.0000 C   0  0
  -14.2971   -0.7229    0.0000 C   0  0
   -7.8024   -2.6887    0.0000 O   0  0
  -18.1906    1.5338    0.0000 O   0  0
  -22.5793    2.5793    0.0000 C   0  0
   -6.4990   -0.7410    0.0000 C   0  0
  -20.7906    1.5382    0.0000 C   0  0
   -3.8990   -0.7455    0.0000 C   0  0
  -19.4919    0.7860    0.0000 C   0  0
   -2.6003   -1.4978    0.0000 C   0  0
  -15.5906    1.5293    0.0000 C   0  0
  -22.1961    1.1291    0.0000 C   0  0
  -21.1291    2.9625    0.0000 C   0  0
  -16.8919    0.7816    0.0000 C   0  0
    2.5956   -2.7031    0.0000 C   0  0
    2.5955    2.7031    0.0000 C   0  0
  1  2  2  0
  1  3  1  0
  2  4  1  0
  5  6  1  0
  3  7  2  0
  5  9  1  0
  8  9  1  0
  4 10  2  0
  7 10  1  0
  1 11  1  0
  6 15  1  0
  6 16  2  0
  2 17  1  0
 13 18  2  0
 16 18  1  0
 13 19  1  0
 15 19  2  0
  8 20  1  0
  8 23  1  0
 12 23  1  0
 12 25  1  0
 21 26  1  0
 24 26  1  0
  7 27  1  0
 25 27  1  0
 13 28  1  0
 22 29  1  0
 24 29  1  0
 22 30  1  0
 24 30  1  0
 21 31  1  0
 28 31  1  0
 11 32  1  0
 17 33  1  0
M  END