
          11280715272D 1   1.00000     0.00000     0

 14 16  0     0  0            999 V2000
    1.1167   -0.6000    0.0000 N   0  0  0  0  0  0           0  0  0
    1.4292   -1.1250    0.0000 C   0  0  3  0  0  0           0  0  0
    2.0292   -1.1250    0.0000 C   0  0  3  0  0  0           0  0  0
    1.4167   -1.7250    0.0000 C   0  0  3  0  0  0           0  0  0
    2.5417   -0.8167    0.0000 C   0  0  0  0  0  0           0  0  0
    2.0167   -1.7250    0.0000 C   0  0  0  0  0  0           0  0  0
    0.9042   -1.4250    0.0000 C   0  0  0  0  0  0           0  0  0
    3.0667   -1.1125    0.0000 C   0  0  0  0  0  0           0  0  0
    2.5292   -0.2167    0.0000 C   0  0  0  0  0  0           0  0  0
    0.9042   -2.0250    0.0000 C   0  0  0  0  0  0           0  0  0
    3.5667   -0.2125    0.0000 C   0  0  0  0  0  0           0  0  0
    3.0417    0.0875    0.0000 C   0  0  0  0  0  0           0  0  0
    3.5792   -0.8125    0.0000 C   0  0  0  0  0  0           0  0  0
    4.0917    0.0958    0.0000 F   0  0  0  0  0  0           0  0  0
  2  1  1  0     0  0
  3  2  1  0     0  0
  4  1  1  0     0  0
  5  3  1  0     0  0
  6  4  1  0     0  0
  7  2  1  0     0  0
  8  5  2  0     0  0
  9  5  1  0     0  0
 10  4  1  0     0  0
 11 12  1  0     0  0
 12  9  2  0     0  0
 13  8  1  0     0  0
 14 11  1  0     0  0
 10  7  1  0     0  0
  6  3  1  0     0  0
 11 13  2  0     0  0
M  END