
  SciTegic12191611322D

 25 27  0  0  0  0            999 V2000
    0.0186    0.7828    0.0000 C   0  0
    1.3979    1.3979    0.0000 C   0  0
    1.5656    2.8889    0.0000 C   0  0
    0.3168    3.8022    0.0000 N   0  0
   -1.0251    3.1871    0.0000 C   0  0
   -1.1742    1.6588    0.0000 C   0  0
   -1.5555   -5.7035    0.0000 O   0  0
   -2.3625   -4.8154    0.0000 S   0  0
   -1.1898   -4.5607    0.0000 O   0  0
    1.4351   -1.1556    0.0000 N   0  0
    0.0186   -1.6401    0.0000 N   0  0
   -0.8574   -0.4287    0.0000 C   0  0
    1.4351    0.3168    0.0000 C   0  0
   -0.4383   -3.0669    0.0000 C   0  0
   -1.9047   -3.3860    0.0000 N   0  0
   -3.8290   -5.1345    0.0000 C   0  0
   -4.2856   -6.5634    0.0000 C   0  0
   -5.7513   -6.8824    0.0000 C   0  0
   -6.7604   -5.7725    0.0000 C   0  0
   -6.3038   -4.3437    0.0000 C   0  0
   -4.8381   -4.0247    0.0000 C   0  0
    0.5688   -4.1797    0.0000 N   0  0
    0.1095   -5.6085    0.0000 C   0  0
    0.9146   -6.4983    0.0000 C   0  0
   -7.9329   -6.0277    0.0000 N   0  0
  1  2  1  0
  1  6  1  0
  2  3  1  0
  3  4  1  0
  4  5  1  0
  5  6  1  0
  8  7  2  0
  9  8  2  0
 10 11  1  0
 11 12  1  0
 12  1  1  0
  1 13  1  0
 13 10  2  0
 11 14  1  0
 14 15  2  0
 15  8  1  0
  8 16  1  0
 16 17  2  0
 17 18  1  0
 18 19  2  0
 19 20  1  0
 20 21  2  0
 21 16  1  0
 14 22  1  0
 22 23  1  0
 23 24  1  0
 19 25  1  0
M  END