
          11280715122D 1   1.00000     0.00000     0

 32 35  0     0  0            999 V2000
    6.5917   -4.8417    0.0000 C   0  0  0  0  0  0           0  0  0
    7.3042   -5.2542    0.0000 C   0  0  0  0  0  0           0  0  0
    2.2042   -5.2667    0.0000 N   0  0  3  0  0  0           0  0  0
    1.4917   -4.8542    0.0000 C   0  0  0  0  0  0           0  0  0
    3.6292   -6.0917    0.0000 N   0  0  3  0  0  0           0  0  0
    7.3042   -6.0875    0.0000 C   0  0  0  0  0  0           0  0  0
    5.8792   -5.2542    0.0000 O   0  0  0  0  0  0           0  0  0
    2.9167   -4.8500    0.0000 C   0  0  0  0  0  0           0  0  0
    2.2042   -6.0917    0.0000 C   0  0  0  0  0  0           0  0  0
    6.5917   -4.0167    0.0000 C   0  0  0  0  0  0           0  0  0
    1.4917   -4.0250    0.0000 C   0  0  0  0  0  0           0  0  0
    2.9167   -6.5000    0.0000 C   0  0  0  0  0  0           0  0  0
    3.6292   -5.2667    0.0000 C   0  0  0  0  0  0           0  0  0
    6.4792   -6.0875    0.0000 N   0  0  0  0  0  0           0  0  0
    2.2042   -3.6042    0.0000 O   0  0  0  0  0  0           0  0  0
    8.0167   -4.8417    0.0000 C   0  0  0  0  0  0           0  0  0
    4.3417   -6.5000    0.0000 C   0  0  0  0  0  0           0  0  0
    5.0542   -6.0875    0.0000 C   0  0  0  0  0  0           0  0  0
    0.7750   -5.2667    0.0000 C   0  0  0  0  0  0           0  0  0
    5.7667   -6.5000    0.0000 C   0  0  0  0  0  0           0  0  0
    8.0167   -6.5000    0.0000 C   0  0  0  0  0  0           0  0  0
    7.3042   -3.6042    0.0000 C   0  0  0  0  0  0           0  0  0
    5.8792   -3.6125    0.0000 C   0  0  0  0  0  0           0  0  0
    0.7750   -3.6125    0.0000 C   0  0  0  0  0  0           0  0  0
    2.9167   -4.0167    0.0000 C   0  0  0  0  0  0           0  0  0
    8.7292   -5.2542    0.0000 C   0  0  0  0  0  0           0  0  0
    0.0625   -4.8542    0.0000 C   0  0  0  0  0  0           0  0  0
    8.7375   -6.0792    0.0000 C   0  0  0  0  0  0           0  0  0
    7.3042   -2.7875    0.0000 C   0  0  0  0  0  0           0  0  0
    5.8750   -2.7917    0.0000 C   0  0  0  0  0  0           0  0  0
    0.0625   -4.0250    0.0000 C   0  0  0  0  0  0           0  0  0
    6.5917   -2.3667    0.0000 C   0  0  0  0  0  0           0  0  0
  2  1  1  0     0  0
  3  8  1  0     0  0
  4  3  1  0     0  0
  5 17  1  0     0  0
  6  2  2  0     0  0
  7  1  2  0     0  0
  8 13  1  0     0  0
  9 12  1  0     0  0
 10  1  1  0     0  0
 11  4  1  0     0  0
 12  5  1  0     0  0
 13  5  1  0     0  0
 14  6  1  0     0  0
 15 11  1  0     0  0
 16  2  1  0     0  0
 17 18  1  0     0  0
 18 20  1  0     0  0
 19  4  2  0     0  0
 20 14  1  0     0  0
 21  6  1  0     0  0
 22 10  2  0     0  0
 23 10  1  0     0  0
 24 11  2  0     0  0
 25 15  1  0     0  0
 26 16  2  0     0  0
 27 19  1  0     0  0
 28 26  1  0     0  0
 29 22  1  0     0  0
 30 23  2  0     0  0
 31 27  2  0     0  0
 32 30  1  0     0  0
 32 29  2  0     0  0
 28 21  2  0     0  0
  9  3  1  0     0  0
 31 24  1  0     0  0
M  END