
  SciTegic12131016252D

 26 29  0  0  0  0            999 V2000
    2.4023   -1.7975    0.0000 C   0  0
    3.5056   -1.0491    0.0000 N   0  0
    2.6815   -1.0267    0.0000 C   0  0
    3.7355   -1.8441    0.0000 C   0  0
    3.0515   -2.3014    0.0000 C   0  0
    3.1126   -3.1209    0.0000 N   0  0
    3.8486   -3.4843    0.0000 C   0  0
    4.5330   -3.0179    0.0000 N   0  0
    4.4729   -2.2001    0.0000 C   0  0
    5.1301   -1.6984    0.0000 N   0  0
    0.9478   -1.5867    0.0000 N   0  0
    0.2856   -2.0858    0.0000 C   0  0  1  0  0  0
    0.5499   -2.8671    0.0000 C   0  0  2  0  0  0
    1.3754   -2.8558    0.0000 C   0  0  2  0  0  0
    1.6222   -2.0673    0.0000 C   0  0  2  0  0  0
    1.8714   -3.5173    0.0000 O   0  0
    0.0765   -3.5420    0.0000 O   0  0
   -0.5032   -1.8441    0.0000 C   0  0
   -0.6860   -1.0395    0.0000 S   0  0
   -1.4748   -0.7936    0.0000 C   0  0
   -1.6519    0.0130    0.0000 C   0  0
   -2.4398    0.2591    0.0000 C   0  0
   -3.0482   -0.3012    0.0000 C   0  0
   -2.8633   -1.1109    0.0000 C   0  0
   -2.0757   -1.3532    0.0000 C   0  0
   -3.8323   -0.0578    0.0000 Cl  0  0
  2  3  1  0
  6  7  2  0
 12 13  1  0
 13 14  1  0
 14 15  1  0
 15 11  1  0
  3  1  2  0
 14 16  1  6
  7  8  1  0
 13 17  1  6
 15  1  1  1
  1  5  1  0
 12 18  1  1
  8  9  2  0
 18 19  1  0
  9  4  1  0
 19 20  1  0
 20 21  2  0
  9 10  1  0
 21 22  1  0
  4  5  2  0
 22 23  2  0
 11 12  1  0
 23 24  1  0
  4  2  1  0
 24 25  2  0
 25 20  1  0
  5  6  1  0
 23 26  1  0
M  END