
  SciTegic05061116452D

 28 31  0  0  0  0            999 V2000
    5.0944   -2.5625    0.0000 C   0  0
    5.0932   -3.3898    0.0000 C   0  0
    5.8081   -3.8027    0.0000 C   0  0
    5.8063   -2.1497    0.0000 C   0  0
    6.5216   -2.5588    0.0000 C   0  0
    6.5224   -3.3857    0.0000 C   0  0
    7.2377   -3.7966    0.0000 N   0  0
    7.9527   -3.3819    0.0000 C   0  0
    7.9480   -2.5519    0.0000 C   0  0
    7.2321   -2.1447    0.0000 N   0  0
    8.6688   -3.7916    0.0000 O   0  0
    8.6720   -4.6166    0.0000 C   0  0
    9.3881   -5.0263    0.0000 C   0  0
    8.6599   -2.1351    0.0000 C   0  0
    9.3769   -2.5432    0.0000 N   0  0
    9.3779   -3.3720    0.0000 C   0  0
   10.0907   -3.7801    0.0000 C   0  0
   10.8051   -3.3668    0.0000 N   0  0
   10.8021   -2.5408    0.0000 C   0  0
   10.0846   -2.1282    0.0000 C   0  0
    8.6549   -1.3101    0.0000 O   0  0
   11.5206   -3.7776    0.0000 C   0  0
   11.5200   -4.6011    0.0000 C   0  0
   12.2345   -5.0119    0.0000 C   0  0
   12.9490   -4.5977    0.0000 C   0  0
   12.9445   -3.7684    0.0000 C   0  0
   12.2293   -3.3614    0.0000 C   0  0
   13.6565   -3.3517    0.0000 Cl  0  0
  3  6  2  0
  9 14  1  0
  6  7  1  0
 14 15  1  0
 15 16  1  0
  1  2  2  0
  7  8  2  0
  5  4  2  0
  8  9  1  0
  4  1  1  0
 15 20  1  0
 16 17  1  0
 17 18  1  0
 18 19  1  0
 19 20  1  0
  9 10  2  0
 14 21  2  0
 10  5  1  0
 18 22  1  0
 22 23  2  0
  8 11  1  0
 23 24  1  0
  2  3  1  0
 24 25  2  0
 11 12  1  0
 25 26  1  0
  5  6  1  0
 26 27  2  0
 27 22  1  0
 12 13  1  0
 26 28  1  0
M  END