
          11280714582D 1   1.00000     0.00000     0

 49 52  0     1  0            999 V2000
    2.9042   -4.3542    0.0000 C   0  0  0  0  0  0           0  0  0
    0.3125   -1.6542    0.0000 C   0  0  0  0  0  0           0  0  0
    3.4292   -4.0542    0.0000 N   0  0  0  0  0  0           0  0  0
    0.8292   -1.3500    0.0000 C   0  0  0  0  0  0           0  0  0
    1.8667   -4.9542    0.0000 C   0  0  0  0  0  0           0  0  0
    4.4667   -4.0542    0.0000 C   0  0  0  0  0  0           0  0  0
    2.3792   -4.0542    0.0000 C   0  0  1  0  0  0           0  0  0
    1.8667   -4.3542    0.0000 N   0  0  0  0  0  0           0  0  0
    0.3125   -2.2542    0.0000 N   0  0  0  0  0  0           0  0  0
    0.8292   -4.9542    0.0000 C   0  0  0  0  0  0           0  0  0
    3.9417   -4.3542    0.0000 C   0  0  2  0  0  0           0  0  0
    4.9875   -4.3542    0.0000 N   0  0  0  0  0  0           0  0  0
    1.3500   -5.2542    0.0000 C   0  0  0  0  0  0           0  0  0
    0.3167   -5.2500    0.0000 C   0  0  0  0  0  0           0  0  0
    3.4292   -5.8542    0.0000 C   0  0  0  0  0  0           0  0  0
    2.9042   -4.9542    0.0000 O   0  0  0  0  0  0           0  0  0
   -0.2083   -1.3542    0.0000 O   0  0  0  0  0  0           0  0  0
    2.3792   -3.4542    0.0000 C   0  0  0  0  0  0           0  0  0
    1.3500   -1.6500    0.0000 O   0  0  0  0  0  0           0  0  0
    4.4667   -3.4542    0.0000 O   0  0  0  0  0  0           0  0  0
    2.3792   -5.2542    0.0000 O   0  0  0  0  0  0           0  0  0
    2.9042   -6.1542    0.0000 O   0  0  0  0  0  0           0  0  0
    3.9417   -4.9542    0.0000 C   0  0  0  0  0  0           0  0  0
    0.8292   -2.5500    0.0000 C   0  0  0  0  0  0           0  0  0
   -0.2083   -4.9542    0.0000 C   0  0  0  0  0  0           0  0  0
    3.4292   -5.2542    0.0000 C   0  0  0  0  0  0           0  0  0
    1.8667   -3.1542    0.0000 C   0  0  0  0  0  0           0  0  0
    5.5042   -4.0542    0.0000 C   0  0  0  0  0  0           0  0  0
    0.8292   -0.7500    0.0000 O   0  0  0  0  0  0           0  0  0
    6.0250   -4.3542    0.0000 C   0  0  0  0  0  0           0  0  0
    7.0625   -4.9542    0.0000 C   0  0  0  0  0  0           0  0  0
    3.9417   -6.1542    0.0000 O   0  0  0  0  0  0           0  0  0
    1.3500   -2.2500    0.0000 C   0  0  0  0  0  0           0  0  0
    0.8292   -3.1542    0.0000 C   0  0  0  0  0  0           0  0  0
    1.8667   -2.5500    0.0000 C   0  0  0  0  0  0           0  0  0
    1.3542   -3.4500    0.0000 C   0  0  0  0  0  0           0  0  0
    6.0250   -4.9542    0.0000 C   0  0  0  0  0  0           0  0  0
    6.5417   -4.0542    0.0000 C   0  0  0  0  0  0           0  0  0
    7.0625   -4.3500    0.0000 C   0  0  0  0  0  0           0  0  0
    6.5417   -5.2542    0.0000 C   0  0  0  0  0  0           0  0  0
    0.8292   -4.3500    0.0000 C   0  0  0  0  0  0           0  0  0
    7.5792   -5.2542    0.0000 O   0  0  0  0  0  0           0  0  0
    0.3125   -4.0500    0.0000 C   0  0  0  0  0  0           0  0  0
    0.3167   -5.8417    0.0000 C   0  0  0  0  0  0           0  0  0
   -0.2083   -4.3500    0.0000 C   0  0  0  0  0  0           0  0  0
   -0.7208   -5.2542    0.0000 C   0  0  0  0  0  0           0  0  0
    7.5792   -5.8542    0.0000 C   0  0  0  0  0  0           0  0  0
   -0.1958   -6.1500    0.0000 C   0  0  0  0  0  0           0  0  0
   -0.7208   -5.8542    0.0000 C   0  0  0  0  0  0           0  0  0
  2  9  1  0     0  0
  3  1  1  0     0  0
  4  2  1  0     0  0
  5  8  1  0     0  0
  6 11  1  0     0  0
  7  1  1  0     0  0
  8  7  1  0     0  0
  9 24  1  0     0  0
 10 13  1  0     0  0
 11  3  1  0     0  0
 12  6  1  0     0  0
 13  5  1  0     0  0
 14 10  2  0     0  0
 15 26  1  0     0  0
 16  1  2  0     0  0
 17  2  2  0     0  0
  7 18  1  1     0  0
 19  4  2  0     0  0
 20  6  2  0     0  0
 21  5  2  0     0  0
 22 15  2  0     0  0
 11 23  1  6     0  0
 24 34  1  0     0  0
 25 14  1  0     0  0
 26 23  1  0     0  0
 27 18  1  0     0  0
 28 12  1  0     0  0
 29  4  1  0     0  0
 30 28  1  0     0  0
 31 39  1  0     0  0
 32 15  1  0     0  0
 33 35  1  0     0  0
 34 36  2  0     0  0
 35 27  2  0     0  0
 36 27  1  0     0  0
 37 30  2  0     0  0
 38 30  1  0     0  0
 39 38  2  0     0  0
 40 37  1  0     0  0
 41 10  1  0     0  0
 42 31  1  0     0  0
 43 41  2  0     0  0
 44 14  1  0     0  0
 45 43  1  0     0  0
 46 25  1  0     0  0
 47 42  1  0     0  0
 48 44  2  0     0  0
 49 48  1  0     0  0
 33 24  2  0     0  0
 25 45  2  0     0  0
 40 31  2  0     0  0
 46 49  2  0     0  0
M  END