
  SciTegic10311316212D

 31 33  0  0  0  0            999 V2000
   12.9287  -28.3334    0.0000 P   0  0
   12.1115  -28.3334    0.0000 O   0  0
   12.5201  -29.0411    0.0000 O   0  0
   13.6364  -28.7420    0.0000 C   0  0
   14.3441  -28.3334    0.0000 C   0  0
   12.9287  -27.5162    0.0000 O   0  0
   15.0518  -28.7420    0.0000 C   0  0
   15.7595  -28.3334    0.0000 N   0  0
   16.4672  -28.7420    0.0000 C   0  0
   15.7595  -27.5162    0.0000 O   0  0
   16.4672  -29.5592    0.0000 O   0  0
   13.6364  -29.5592    0.0000 C   0  0
   12.9264  -29.9660    0.0000 C   0  0
   12.9260  -30.7824    0.0000 C   0  0
   13.6343  -31.1918    0.0000 C   0  0
   14.3443  -30.7788    0.0000 C   0  0
   14.3412  -29.9637    0.0000 C   0  0
   15.0535  -31.1849    0.0000 Cl  0  0
   13.6353  -32.0090    0.0000 Cl  0  0
   17.1749  -28.3334    0.0000 C   0  0
   17.8814  -28.7462    0.0000 C   0  0
   18.5886  -28.3383    0.0000 C   0  0
   18.5891  -27.5203    0.0000 C   0  0
   17.8764  -27.1118    0.0000 C   0  0
   17.1721  -27.5221    0.0000 C   0  0
   19.2961  -28.7473    0.0000 C   0  0
   20.0040  -28.3390    0.0000 N   0  0
   20.7475  -28.6687    0.0000 C   0  0
   21.2946  -28.0617    0.0000 N   0  0
   20.8863  -27.3537    0.0000 C   0  0
   20.0870  -27.5234    0.0000 N   0  0
  2  1  1  0
  1  3  1  0
  4  5  1  0
  4  1  1  0
  1  6  2  0
  5  7  1  0
  7  8  1  0
  8  9  1  0
  8 10  1  0
  9 11  2  0
  4 12  1  0
 12 13  2  0
 13 14  1  0
 14 15  2  0
 15 16  1  0
 16 17  2  0
 17 12  1  0
 16 18  1  0
 15 19  1  0
  9 20  1  0
 20 21  2  0
 21 22  1  0
 22 23  2  0
 23 24  1  0
 24 25  2  0
 25 20  1  0
 22 26  1  0
 26 27  1  0
 27 28  1  0
 28 29  2  0
 29 30  1  0
 30 31  2  0
 31 27  1  0
M  END