
  SciTegic01161211242D

 38 39  0  0  0  0            999 V2000
    1.4292   -5.6250    0.0000 N   0  3
    1.4208   -6.4417    0.0000 C   0  0
    0.7250   -5.2000    0.0000 C   0  0
    2.1333   -6.8542    0.0000 C   0  0
    0.7083   -6.8500    0.0000 C   0  0
    0.0042   -5.6083    0.0000 C   0  0
    0.0042   -6.4333    0.0000 C   0  0
    0.7042   -7.6625    0.0000 C   0  0
    2.1333   -7.6833    0.0000 C   0  0
    2.8417   -6.4417    0.0000 C   0  0
    9.3042   -5.3292    0.0000 N   0  3
    0.7333   -4.3792    0.0000 C   0  0
    2.1500   -5.2250    0.0000 C   0  0
    1.4208   -8.0917    0.0000 C   0  0
   -0.7125   -6.8458    0.0000 N   0  0
    2.8458   -8.0958    0.0000 C   0  0
    3.5458   -6.8542    0.0000 C   0  0
    4.2583   -6.4333    0.0000 N   0  0
    3.5583   -7.6875    0.0000 C   0  0
    8.5833   -5.7292    0.0000 C   0  0
    9.7125   -6.0458    0.0000 C   0  0
    8.8917   -4.6125    0.0000 C   0  0
   10.0125   -4.9083    0.0000 C   0  0
    1.4542   -3.9750    0.0000 C   0  0
    0.0250   -3.9583    0.0000 C   0  0
    2.8625   -5.6458    0.0000 C   0  0
    7.8708   -5.3083    0.0000 C   0  0
    5.7208   -5.6875    0.0000 C   0  0
    6.4417   -5.2875    0.0000 C   0  0
    7.1500   -5.7083    0.0000 C   0  0
    3.5833   -5.2458    0.0000 C   0  0
    4.2917   -5.6667    0.0000 C   0  0
    5.0083   -5.2667    0.0000 C   0  0
    0.0292   -3.1375    0.0000 C   0  0
    1.4667   -3.1500    0.0000 C   0  0
    0.7542   -2.7333    0.0000 C   0  0
    2.8958   -3.6208    0.0000 Cl  0  5
    9.8250   -8.4292    0.0000 Cl  0  5
  2  1  2  0
  3  1  1  0
  4  2  1  0
  5  2  1  0
  6  3  2  0
  7  6  1  0
  8  5  1  0
  9  4  1  0
 10  4  2  0
 11 20  1  0
 12  3  1  0
 13  1  1  0
 14  8  2  0
 15  7  1  0
 16  9  2  0
 17 10  1  0
 18 17  1  0
 19 17  2  0
 20 27  1  0
 21 11  1  0
 22 11  1  0
 23 11  1  0
 24 12  2  0
 25 12  1  0
 26 13  1  0
 27 30  1  0
 28 33  1  0
 29 28  1  0
 30 29  1  0
 31 26  1  0
 32 31  1  0
 33 32  1  0
 34 25  2  0
 35 24  1  0
 36 34  1  0
  5  7  2  0
  9 14  1  0
 36 35  2  0
 19 16  1  0
M  CHG  4   1   1  11   1  37  -1  38  -1
M  END