
          11290713132D 1   1.00000     0.00000     0

 73 77  0     1  0            999 V2000
    9.5078  -13.8107    0.0000 C   0  0  0  0  0  0           0  0  0
    8.7906  -13.3760    0.0000 C   0  0  2  0  0  0           0  0  0
    8.0388  -14.6119    0.0000 C   0  0  0  0  0  0           0  0  0
    7.2976  -15.0116    0.0000 C   0  0  2  0  0  0           0  0  0
    9.3702  -17.1162    0.0000 C   0  0  0  0  0  0           0  0  0
    8.6476  -17.5165    0.0000 S   0  0  0  0  0  0           0  0  0
    7.9652  -17.1144    0.0000 S   0  0  0  0  0  0           0  0  0
   10.8197  -16.3109    0.0000 C   0  0  0  0  0  0           0  0  0
   10.0796  -17.5445    0.0000 C   0  0  1  0  0  0           0  0  0
    7.2453  -17.5124    0.0000 C   0  0  0  0  0  0           0  0  0
    6.5338  -17.0843    0.0000 C   0  0  0  0  0  0           0  0  0
    6.5476  -16.2362    0.0000 C   0  0  0  0  0  0           0  0  0
   10.8770  -14.6597    0.0000 C   0  0  0  0  0  0           0  0  0
   11.5412  -15.9175    0.0000 C   0  0  2  0  0  0           0  0  0
   10.8884  -13.8327    0.0000 C   0  0  2  0  0  0           0  0  0
   10.0625  -18.3680    0.0000 C   0  0  0  0  0  0           0  0  0
   10.1189  -15.8804    0.0000 O   0  0  0  0  0  0           0  0  0
   10.1506  -15.0531    0.0000 O   0  0  0  0  0  0           0  0  0
    9.5054  -14.6343    0.0000 O   0  0  0  0  0  0           0  0  0
    8.7394  -15.0427    0.0000 O   0  0  0  0  0  0           0  0  0
    5.8434  -15.8080    0.0000 O   0  0  0  0  0  0           0  0  0
    9.3434  -18.7700    0.0000 O   0  0  0  0  0  0           0  0  0
   10.7729  -18.7898    0.0000 N   0  0  3  0  0  0           0  0  0
    6.5942  -14.5821    0.0000 C   0  0  0  0  0  0           0  0  0
    6.6209  -13.7587    0.0000 C   0  0  0  0  0  0           0  0  0
    7.3429  -13.3701    0.0000 C   0  0  0  0  0  0           0  0  0
    7.3661  -12.5476    0.0000 C   0  0  0  0  0  0           0  0  0
    6.6659  -12.1171    0.0000 C   0  0  0  0  0  0           0  0  0
    5.9364  -12.5137    0.0000 C   0  0  0  0  0  0           0  0  0
    5.9186  -13.3341    0.0000 C   0  0  0  0  0  0           0  0  0
    8.8131  -12.5524    0.0000 C   0  0  0  0  0  0           0  0  0
    9.5350  -12.1580    0.0000 C   0  0  0  0  0  0           0  0  0
   10.2403  -12.5942    0.0000 C   0  0  0  0  0  0           0  0  0
   10.9614  -12.2009    0.0000 C   0  0  0  0  0  0           0  0  0
   10.9846  -11.3759    0.0000 C   0  0  0  0  0  0           0  0  0
   10.2779  -10.9426    0.0000 C   0  0  0  0  0  0           0  0  0
    9.5570  -11.3394    0.0000 C   0  0  0  0  0  0           0  0  0
   11.6112  -13.4325    0.0000 C   0  0  0  0  0  0           0  0  0
   12.2441  -16.3480    0.0000 C   0  0  0  0  0  0           0  0  0
   12.9707  -15.9550    0.0000 C   0  0  0  0  0  0           0  0  0
   13.6737  -16.3854    0.0000 O   0  0  0  0  0  0           0  0  0
   10.8455  -19.6138    0.0000 C   0  0  1  0  0  0           0  0  0
   11.6520  -19.7951    0.0000 C   0  0  0  0  0  0           0  0  0
   12.0736  -19.0888    0.0000 C   0  0  0  0  0  0           0  0  0
   11.5322  -18.4664    0.0000 C   0  0  0  0  0  0           0  0  0
   10.2274  -20.1558    0.0000 C   0  0  0  0  0  0           0  0  0
    9.4458  -19.8862    0.0000 O   0  0  0  0  0  0           0  0  0
   11.1683  -21.2314    0.0000 C   0  0  2  0  0  0           0  0  0
   11.3277  -22.0428    0.0000 C   0  0  0  0  0  0           0  0  0
   11.7906  -20.6898    0.0000 C   0  0  0  0  0  0           0  0  0
   10.7085  -22.5863    0.0000 N   0  0  0  0  0  0           0  0  0
   12.1126  -22.3100    0.0000 O   0  0  0  0  0  0           0  0  0
   12.5683  -20.9549    0.0000 C   0  0  0  0  0  0           0  0  0
   13.1905  -20.4132    0.0000 C   0  0  0  0  0  0           0  0  0
   13.9724  -20.6787    0.0000 N   0  0  0  0  0  0           0  0  0
   11.8213  -12.6303    0.0000 C   0  0  3  0  0  0           0  0  0
   12.6227  -12.4128    0.0000 C   0  0  0  0  0  0           0  0  0
   12.8339  -11.6144    0.0000 C   0  0  0  0  0  0           0  0  0
   12.2468  -11.0279    0.0000 C   0  0  0  0  0  0           0  0  0
   11.4455  -11.2454    0.0000 C   0  0  0  0  0  0           0  0  0
   11.2311  -12.0494    0.0000 C   0  0  0  0  0  0           0  0  0
    9.9279  -22.3216    0.0000 C   0  0  0  0  0  0           0  0  0
    9.3083  -22.8653    0.0000 C   0  0  0  0  0  0           0  0  0
    8.5252  -22.6021    0.0000 N   0  0  0  0  0  0           0  0  0
    9.4670  -23.6750    0.0000 O   0  0  0  0  0  0           0  0  0
    8.0757  -13.7877    0.0000 N   0  0  0  0  0  0           0  0  0
    7.2691  -15.8361    0.0000 N   0  0  0  0  0  0           0  0  0
   10.7961  -17.1356    0.0000 N   0  0  0  0  0  0           0  0  0
   11.5788  -15.0933    0.0000 N   0  0  0  0  0  0           0  0  0
   10.2053  -13.3701    0.0000 N   0  0  0  0  0  0           0  0  0
    6.6766  -11.2896    0.0000 O   0  0  0  0  0  0           0  0  0
   12.9948  -15.1336    0.0000 N   0  0  0  0  0  0           0  0  0
   10.3875  -20.9652    0.0000 N   0  0  0  0  0  0           0  0  0
 13 15  1  0     0  0
  9 16  1  6     0  0
  8 17  2  0     0  0
 13 18  2  0     0  0
  1 19  2  0     0  0
  3 20  2  0     0  0
 12 21  2  0     0  0
 16 22  2  0     0  0
 16 23  1  0     0  0
  4 24  1  1     0  0
 24 25  1  0     0  0
 25 26  2  0     0  0
 26 27  1  0     0  0
 27 28  2  0     0  0
 28 29  1  0     0  0
 29 30  2  0     0  0
 30 25  1  0     0  0
  2 31  1  1     0  0
 31 32  1  0     0  0
 32 33  2  0     0  0
 33 34  1  0     0  0
 34 35  2  0     0  0
 35 36  1  0     0  0
 36 37  2  0     0  0
 37 32  1  0     0  0
 15 38  1  1     0  0
 14 39  1  1     0  0
 39 40  1  0     0  0
 40 41  2  0     0  0
 23 42  1  0     0  0
 42 43  1  0     0  0
 43 44  1  0     0  0
 44 45  1  0     0  0
 45 23  1  0     0  0
 42 46  1  1     0  0
 46 47  2  0     0  0
 48 49  1  0     0  0
 48 50  1  1     0  0
 49 51  1  0     0  0
 49 52  2  0     0  0
 50 53  1  0     0  0
 53 54  1  0     0  0
 54 55  1  0     0  0
 38 56  1  0     0  0
 56 57  1  0     0  0
  1  2  1  0     0  0
  4  3  1  0     0  0
 56 61  1  0     0  0
 57 58  1  0     0  0
 58 59  1  0     0  0
 59 60  1  0     0  0
 60 61  1  0     0  0
  5  6  1  0     0  0
 51 62  1  0     0  0
  6  7  1  0     0  0
 62 63  1  0     0  0
  5  9  1  0     0  0
 63 64  1  0     0  0
 63 65  2  0     0  0
 10 11  1  0     0  0
  7 10  1  0     0  0
 12 11  1  0     0  0
  8 14  1  0     0  0
 13 69  1  0     0  0
 69 14  1  0     0  0
 67  4  1  0     0  0
 67 12  1  0     0  0
 15 70  1  0     0  0
 70  1  1  0     0  0
  2 66  1  0     0  0
 66  3  1  0     0  0
 28 71  1  0     0  0
  8 68  1  0     0  0
 68  9  1  0     0  0
 40 72  1  0     0  0
 46 73  1  0     0  0
 73 48  1  0     0  0
M  END