
  CDK    9/16/09,9:50

 22 23  0  0  0  0  0  0  0  0999 V2000
   -4.4114   -2.3550    0.0000 C   0  0  0  0  0  0  0  0  0  0  0  0
   -4.4114   -3.1800    0.0000 C   0  0  0  0  0  0  0  0  0  0  0  0
   -3.6987   -3.5864    0.0000 C   0  0  0  0  0  0  0  0  0  0  0  0
   -2.9902   -3.1800    0.0000 C   0  0  0  0  0  0  0  0  0  0  0  0
   -2.9902   -2.3550    0.0000 C   0  0  0  0  0  0  0  0  0  0  0  0
   -3.6987   -1.9362    0.0000 O   0  0  0  0  0  0  0  0  0  0  0  0
   -2.2740   -1.9424    0.0000 C   0  0  0  0  0  0  0  0  0  0  0  0
   -3.6987   -4.4114    0.0000 O   0  0  0  0  0  0  0  0  0  0  0  0
   -5.1259   -3.5916    0.0000 O   0  0  0  0  0  0  0  0  0  0  0  0
   -5.1277   -1.9424    0.0000 C   0  0  0  0  0  0  0  0  0  0  0  0
   -1.5601   -2.3592    0.0000 C   0  0  0  0  0  0  0  0  0  0  0  0
   -2.2758   -3.5916    0.0000 O   0  0  0  0  0  0  0  0  0  0  0  0
   -1.4729   -3.1824    0.0000 N   0  0  0  0  0  0  0  0  0  0  0  0
   -0.6652   -3.3581    0.0000 N   0  0  0  0  0  0  0  0  0  0  0  0
   -0.2485   -2.6442    0.0000 N   0  0  0  0  0  0  0  0  0  0  0  0
   -0.7987   -2.0273    0.0000 C   0  0  0  0  0  0  0  0  0  0  0  0
    0.5722   -2.6449    0.0000 C   0  0  0  0  0  0  0  0  0  0  0  0
    0.9820   -3.3561    0.0000 C   0  0  0  0  0  0  0  0  0  0  0  0
    0.5726   -4.0690    0.0000 O   0  0  0  0  0  0  0  0  0  0  0  0
    1.8045   -3.3591    0.0000 O   0  0  0  0  0  0  0  0  0  0  0  0
   -0.2484   -4.0709    0.0000 C   0  0  0  0  0  0  0  0  0  0  0  0
   -5.1286   -1.1215    0.0000 O   0  0  0  0  0  0  0  0  0  0  0  0
  7 11  1  0  0  0  0 
  4  5  1  0  0  0  0 
  4 12  1  6  0  0  0 
 11 13  1  0  0  0  0 
  5  6  1  0  0  0  0 
  5  7  1  1  0  0  0 
  1  2  1  0  0  0  0 
 13 14  2  0  0  0  0 
 14 15  1  0  0  0  0 
 15 16  1  0  0  0  0 
 16 11  2  0  0  0  0 
  3  8  1  1  0  0  0 
 15 17  1  0  0  0  0 
  1  6  1  0  0  0  0 
 17 18  1  0  0  0  0 
  2  9  1  1  0  0  0 
  2  3  1  0  0  0  0 
 18 19  1  0  0  0  0 
 18 20  2  0  0  0  0 
  1 10  1  1  0  0  0 
 19 21  1  0  0  0  0 
  3  4  1  0  0  0  0 
 10 22  1  0  0  0  0 
M  END