
  SciTegic10311316262D

 26 28  0  0  0  0            999 V2000
   24.3905  -16.1209    0.0000 C   0  0
   24.3894  -16.9405    0.0000 C   0  0
   25.0974  -17.3494    0.0000 C   0  0
   25.0956  -15.7121    0.0000 C   0  0
   25.8042  -16.1173    0.0000 C   0  0
   25.8076  -16.9425    0.0000 C   0  0
   26.5200  -17.3499    0.0000 C   0  0
   27.2336  -16.9367    0.0000 C   0  0
   27.2302  -16.1115    0.0000 C   0  0
   26.5132  -15.6995    0.0000 N   0  0
   27.9366  -15.7007    0.0000 O   0  0
   23.6848  -15.7085    0.0000 C   0  0
   23.6859  -14.8902    0.0000 C   0  0
   22.9789  -14.4819    0.0000 C   0  0
   22.2704  -14.8907    0.0000 C   0  0
   22.2732  -15.7121    0.0000 C   0  0
   22.9807  -16.1168    0.0000 C   0  0
   26.5222  -18.1671    0.0000 C   0  0
   24.3939  -14.4822    0.0000 Cl  0  0
   21.5620  -14.4832    0.0000 C   0  0
   21.5607  -13.6660    0.0000 O   0  0
   20.8549  -14.8929    0.0000 N   0  0
   20.1466  -14.4854    0.0000 C   0  0
   19.4395  -14.8952    0.0000 C   0  0
   18.7312  -14.4877    0.0000 O   0  0
   18.0241  -14.8974    0.0000 C   0  0
  1  2  2  0
  2  3  1  0
  3  6  2  0
  5  4  2  0
  4  1  1  0
  5  6  1  0
  5 10  1  0
  6  7  1  0
  7  8  2  0
  8  9  1  0
  9 10  1  0
  9 11  2  0
 12 13  2  0
 13 14  1  0
 14 15  2  0
 15 16  1  0
 16 17  2  0
 17 12  1  0
  1 12  1  0
  7 18  1  0
 13 19  1  0
 15 20  1  0
 20 21  2  0
 20 22  1  0
 22 23  1  0
 23 24  1  0
 24 25  1  0
 25 26  1  0
M  END