
  SciTegic12171312592D

 83 91  0  0  0  0            999 V2000
    2.9268  -19.9892    0.0000 S   0  0
    3.2031  -20.7666    0.0000 O   0  0
    3.7382  -20.1386    0.0000 O   0  0
   16.2205  -16.4460    0.0000 C   0  0
   16.2228  -17.2733    0.0000 C   0  0
   16.9392  -17.6833    0.0000 C   0  0
   17.6540  -17.2669    0.0000 C   0  0
   17.6477  -16.4365    0.0000 C   0  0
   16.9307  -16.0302    0.0000 C   0  0
   18.3708  -17.6754    0.0000 N   0  0
   19.0829  -17.2589    0.0000 C   0  0
   19.7997  -17.6673    0.0000 C   0  0
   19.0782  -16.4339    0.0000 O   0  0
   19.8044  -18.4922    0.0000 C   0  0
   20.5119  -17.2508    0.0000 C   0  0
   20.5211  -18.9007    0.0000 C   0  0
   20.5259  -19.7257    0.0000 C   0  0
   15.5096  -17.6881    0.0000 C   0  0
   15.5123  -18.5131    0.0000 C   0  0  2  0  0  0
   16.2282  -18.9233    0.0000 C   0  0
   16.2309  -19.7483    0.0000 C   0  0  1  0  0  0
   16.9479  -20.1575    0.0000 C   0  0  1  0  0  0
   16.9425  -18.5082    0.0000 O   0  0
   16.9248  -15.2052    0.0000 O   0  0
   16.9521  -20.9825    0.0000 C   0  0  2  0  0  0
   17.6685  -21.3915    0.0000 C   0  0
   18.3810  -20.8213    0.0000 C   0  0
   19.6637  -20.1047    0.0000 C   0  0  1  0  0  0
   19.2275  -20.8240    0.0000 C   0  0  1  0  0  0
   19.1198  -19.4844    0.0000 O   0  0
   19.3850  -18.7032    0.0000 C   0  0
   19.6311  -21.5435    0.0000 O   0  0
   19.2098  -22.2528    0.0000 C   0  0
   19.6134  -22.9723    0.0000 N   0  0
   18.3848  -22.2426    0.0000 O   0  0
   18.4132  -20.0090    0.0000 C   0  0
   16.2396  -21.3985    0.0000 C   0  0
   17.6604  -19.7415    0.0000 O   0  0
   15.5182  -20.1638    0.0000 O   0  0
   14.8020  -19.7542    0.0000 C   0  0
   14.7993  -18.9281    0.0000 C   0  0
   15.5043  -16.0365    0.0000 N   0  0
   14.7916  -16.4521    0.0000 C   0  0
   14.0753  -16.0428    0.0000 C   0  0
   13.3627  -16.4583    0.0000 C   0  0
   12.6464  -16.0489    0.0000 C   0  0
   11.9338  -16.4645    0.0000 N   0  0
   11.2175  -16.0552    0.0000 C   0  0
   11.2138  -15.2302    0.0000 O   0  0
   10.5048  -16.4707    0.0000 C   0  0
    9.7886  -16.0613    0.0000 C   0  0
    9.7888  -15.2382    0.0000 C   0  0
    9.0734  -14.8290    0.0000 C   0  0
    9.0820  -16.4794    0.0000 C   0  0
    8.3660  -16.0738    0.0000 C   0  0
    8.3565  -15.2416    0.0000 C   0  0
    7.5773  -16.3400    0.0000 C   0  0
    7.3314  -17.1275    0.0000 C   0  0
    7.8775  -16.8609    0.0000 C   0  0
    7.0804  -15.6723    0.0000 C   0  0
    7.5616  -14.9975    0.0000 N   0  3
    7.2176  -14.2454    0.0000 C   0  0
    6.3927  -14.1670    0.0000 C   0  0
    6.2595  -15.5961    0.0000 C   0  0
    5.9097  -14.8495    0.0000 C   0  0
    5.0928  -14.7795    0.0000 O   0  0
    5.7924  -16.2728    0.0000 C   0  0
    4.9693  -16.2006    0.0000 C   0  0
    4.6201  -15.4585    0.0000 C   0  0
    3.8073  -15.3903    0.0000 C   0  0
    3.3456  -16.0620    0.0000 C   0  0
    4.5058  -16.8745    0.0000 C   0  0
    3.6862  -16.8086    0.0000 N   0  0
    4.6964  -17.6745    0.0000 C   0  0
    3.9945  -18.1030    0.0000 C   0  0
    3.3734  -17.5682    0.0000 C   0  0
    2.6019  -17.8390    0.0000 C   0  0
    2.4503  -18.6441    0.0000 C   0  0
    3.0763  -19.1778    0.0000 C   0  0
    3.8454  -18.9042    0.0000 C   0  0
    5.4580  -17.9915    0.0000 C   0  0
    4.8430  -18.4574    0.0000 C   0  0
    2.1494  -20.2655    0.0000 O   0  5
  2  1  2  0
  1  3  2  0
  4  5  2  0
  5  6  1  0
  6  7  1  0
  7  8  2  0
  8  9  1  0
  9  4  1  0
  7 10  1  0
 10 11  1  0
 11 12  1  0
 11 13  2  0
 12 14  2  0
 12 15  1  0
 14 16  1  0
 16 17  2  0
  5 18  1  0
 18 19  1  0
 19 20  1  0
 20 21  1  0
 21 22  1  0
  6 23  2  0
  9 24  2  0
 22 25  1  0
 25 26  1  0
 26 27  2  0
 27 29  1  0
 17 28  1  0
 28 29  1  0
 28 30  1  1
 30 31  1  0
 29 32  1  1
 32 33  1  0
 33 34  1  0
 33 35  2  0
 27 36  1  0
 25 37  1  6
 22 38  1  6
 21 39  1  1
 39 40  1  0
 19 41  1  6
  4 42  1  0
 42 43  1  0
 43 44  1  0
 44 45  1  0
 45 46  1  0
 46 47  1  0
 47 48  1  0
 48 49  2  0
 48 50  1  0
 50 51  1  0
 51 52  2  0
 52 53  1  0
 53 56  2  0
 55 54  2  0
 54 51  1  0
 55 56  1  0
 56 61  1  0
 60 57  1  0
 57 55  1  0
 57 58  1  0
 57 59  1  0
 60 61  2  0
 61 62  1  0
 62 63  1  0
 63 65  1  0
 64 60  1  0
 64 65  1  0
 64 67  2  0
 65 66  1  0
 66 69  1  0
 68 67  1  0
 68 69  1  0
 68 72  2  0
 69 70  1  0
 70 71  1  0
 71 73  1  0
 72 73  1  0
 73 76  1  0
 75 74  1  0
 74 72  1  0
 75 76  2  0
 76 77  1  0
 77 78  2  0
 78 79  1  0
 79 80  2  0
 80 75  1  0
 74 81  1  0
 74 82  1  0
 79  1  1  0
  1 83  1  0
M  CHG  2  61   1  83  -1
M  END