
          11280715212D 1   1.00000     0.00000     0

 31 33  0     0  0            999 V2000
   -0.3375   -2.2417    0.0000 N   0  0  3  0  0  0           0  0  0
   -0.3208   -1.4167    0.0000 C   0  0  0  0  0  0           0  0  0
   -1.7583   -1.0417    0.0000 C   0  0  0  0  0  0           0  0  0
   -0.9500   -0.8917    0.0000 C   0  0  0  0  0  0           0  0  0
   -1.0000   -2.7417    0.0000 C   0  0  0  0  0  0           0  0  0
   -2.1375   -1.7792    0.0000 N   0  0  0  0  0  0           0  0  0
   -1.8000   -2.5292    0.0000 C   0  0  0  0  0  0           0  0  0
    0.3917   -2.6167    0.0000 C   0  0  0  0  0  0           0  0  0
   -0.7750   -3.5292    0.0000 N   0  0  0  0  0  0           0  0  0
   -2.2500   -0.3875    0.0000 O   0  0  0  0  0  0           0  0  0
    0.4292   -3.4417    0.0000 O   0  0  0  0  0  0           0  0  0
    6.8250   -2.1792    0.0000 N   0  0  3  0  0  0           0  0  0
   -0.8083   -0.0792    0.0000 C   0  0  0  0  0  0           0  0  0
    0.4542   -1.1417    0.0000 C   0  0  0  0  0  0           0  0  0
    1.8250   -2.6125    0.0000 N   0  0  0  0  0  0           0  0  0
    1.1042   -2.2042    0.0000 C   0  0  0  0  0  0           0  0  0
   -2.3750   -3.1250    0.0000 C   0  0  0  0  0  0           0  0  0
   -1.3458   -4.1167    0.0000 C   0  0  0  0  0  0           0  0  0
    6.8167   -1.3542    0.0000 C   0  0  0  0  0  0           0  0  0
    7.5375   -2.5917    0.0000 C   0  0  0  0  0  0           0  0  0
    6.1042   -2.5917    0.0000 C   0  0  0  0  0  0           0  0  0
    2.5375   -2.2000    0.0000 C   0  0  0  0  0  0           0  0  0
    5.3917   -2.1875    0.0000 C   0  0  0  0  0  0           0  0  0
    3.2542   -2.6042    0.0000 C   0  0  0  0  0  0           0  0  0
   -2.1500   -3.9167    0.0000 C   0  0  0  0  0  0           0  0  0
   -0.0375    0.2000    0.0000 C   0  0  0  0  0  0           0  0  0
    0.5917   -0.3292    0.0000 C   0  0  0  0  0  0           0  0  0
    3.9667   -2.1917    0.0000 C   0  0  0  0  0  0           0  0  0
    4.6792   -2.6042    0.0000 C   0  0  0  0  0  0           0  0  0
    8.2542   -2.1792    0.0000 C   0  0  0  0  0  0           0  0  0
    7.5292   -0.9417    0.0000 C   0  0  0  0  0  0           0  0  0
  2  1  1  0     0  0
  3  4  1  0     0  0
  4  2  2  0     0  0
  5  1  1  0     0  0
  6  7  1  0     0  0
  7  5  2  0     0  0
  8  1  1  0     0  0
  9  5  1  0     0  0
 10  3  2  0     0  0
 11  8  2  0     0  0
 12 21  1  0     0  0
 13  4  1  0     0  0
 14  2  1  0     0  0
 15 16  1  0     0  0
 16  8  1  0     0  0
 17  7  1  0     0  0
 18  9  2  0     0  0
 19 12  1  0     0  0
 20 12  1  0     0  0
 21 23  1  0     0  0
 22 15  1  0     0  0
 23 29  1  0     0  0
 24 22  1  0     0  0
 25 18  1  0     0  0
 26 27  1  0     0  0
 27 14  2  0     0  0
 28 24  1  0     0  0
 29 28  1  0     0  0
 30 20  1  0     0  0
 31 19  1  0     0  0
  6  3  1  0     0  0
 25 17  2  0     0  0
 13 26  2  0     0  0
M  END