
  SciTegic12011114592D

 37 42  0  0  0  0            999 V2000
    5.5629  -27.5244    0.0000 N   0  0
    6.2787  -27.1142    0.0000 C   0  0
    6.2816  -26.2877    0.0000 N   0  0
    5.5627  -25.8728    0.0000 C   0  0
    5.5622  -25.0470    0.0000 N   0  0
    6.2774  -24.6337    0.0000 C   0  0
    6.9925  -27.5296    0.0000 S   0  0
    7.7089  -27.1191    0.0000 C   0  0
    8.4184  -27.5376    0.0000 C   0  0
    9.1345  -27.1278    0.0000 C   0  0
    9.1377  -26.3012    0.0000 C   0  0
    8.4190  -25.8860    0.0000 C   0  0
    7.7059  -26.2982    0.0000 C   0  0
    9.8537  -25.8898    0.0000 N   0  0
    7.0638  -24.8820    0.0000 C   0  0
    7.5434  -24.2098    0.0000 C   0  0
    7.0522  -23.5460    0.0000 N   0  0
    6.2691  -23.8079    0.0000 N   0  0
    8.3691  -24.2026    0.0000 C   0  0
    4.0748  -26.0338    0.0000 C   0  0
    3.5933  -26.6955    0.0000 C   0  0
    4.0740  -27.3579    0.0000 C   0  0
    4.8523  -27.1056    0.0000 N   0  0
    4.8529  -26.2872    0.0000 C   0  0
   10.5680  -26.3042    0.0000 C   0  0
   11.2839  -25.8928    0.0000 C   0  0
   11.9982  -26.3076    0.0000 N   0  0
   10.5663  -27.1299    0.0000 O   0  0
   11.9894  -27.1288    0.0000 C   0  0
   12.7865  -26.0565    0.0000 C   0  0  2  0  0  0
   13.0481  -25.2733    0.0000 C   0  0
   13.8571  -25.1083    0.0000 O   0  0
   13.2646  -26.7297    0.0000 C   0  0  1  0  0  0
   12.7745  -27.3912    0.0000 C   0  0  2  0  0  0
   13.5926  -27.4849    0.0000 C   0  0
   12.5571  -28.1878    0.0000 H   0  0
   13.9750  -26.3111    0.0000 H   0  0
  6 15  1  0
 16 17  1  0
 18  6  2  0
  3  4  2  0
 16 19  1  0
 23 24  1  0
  8  9  2  0
  4 24  1  0
 21 22  2  0
  9 10  1  0
  1  2  2  0
 10 11  2  0
 20 21  1  0
 22 23  1  0
 24 20  2  0
  4  5  1  0
 14 25  1  0
 11 12  1  0
 25 26  1  0
 23  1  1  0
 26 27  1  0
 12 13  2  0
 25 28  2  0
 27 29  1  0
 13  8  1  0
  5  6  1  0
 29 34  1  0
 33 30  1  0
 30 27  1  0
 11 14  1  0
 30 31  1  6
 17 18  1  0
 31 32  1  0
 34 33  1  0
 35 34  1  0
 33 35  1  0
  2  3  1  0
 15 16  2  0
  2  7  1  0
 34 36  1  1
  7  8  1  0
 33 37  1  1
M  END