
  SciTegic12231509382D

 16 17  0  0  0  0            999 V2000
   -3.3598   -4.5833    0.0000 C   0  0
   -3.3609   -5.4065    0.0000 C   0  0
   -2.6503   -5.8194    0.0000 C   0  0
   -2.6521   -4.1747    0.0000 C   0  0
   -1.1491   -5.6663    0.0000 N   0  0
   -1.9409   -4.5797    0.0000 C   0  0
   -1.9392   -5.4101    0.0000 C   0  0
   -1.1518   -4.3243    0.0000 C   0  0
   -0.6584   -4.9969    0.0000 C   0  0
   -4.0740   -4.1703    0.0000 O   0  0
   -4.7887   -4.5823    0.0000 C   0  0
   -0.8983   -3.5392    0.0000 C   0  0
   -0.0916   -3.3663    0.0000 C   0  0
    0.1620   -2.5812    0.0000 N   0  0
    0.9687   -2.4083    0.0000 C   0  0
   -0.3911   -1.9691    0.0000 C   0  0
  1 10  1  0
  4  1  1  0
 10 11  1  0
  6  7  1  0
  8 12  1  0
  1  2  2  0
 12 13  1  0
 13 14  1  0
  2  3  1  0
 14 15  1  0
  5  9  1  0
 14 16  1  0
  8  6  1  0
  7  5  1  0
  8  9  2  0
  3  7  2  0
  6  4  2  0
M  END