
  SciTegic02011310442D

 41 46  0  0  0  0            999 V2000
   17.2928  -20.5934    0.0000 N   0  0
   18.0025  -20.1840    0.0000 C   0  0
   17.9996  -19.3613    0.0000 N   0  0
   17.2910  -18.9561    0.0000 C   0  0
   16.5848  -20.1845    0.0000 N   0  0
   16.5860  -19.3634    0.0000 C   0  0
   15.8055  -19.1085    0.0000 C   0  0
   15.3218  -19.7720    0.0000 C   0  0
   15.8035  -20.4369    0.0000 C   0  0
   18.7108  -20.5915    0.0000 S   0  0
   19.4179  -20.1818    0.0000 C   0  0
   17.2892  -18.1389    0.0000 N   0  0
   17.9960  -17.7287    0.0000 C   0  0
   20.1229  -20.5897    0.0000 C   0  0
   20.8295  -20.1807    0.0000 C   0  0
   20.8287  -19.3626    0.0000 C   0  0
   20.1153  -18.9553    0.0000 C   0  0
   19.4117  -19.3666    0.0000 C   0  0
   18.7411  -18.0607    0.0000 C   0  0
   19.2866  -17.4522    0.0000 C   0  0
   18.8764  -16.7454    0.0000 N   0  0
   18.0775  -16.9171    0.0000 N   0  0
   20.0995  -17.5359    0.0000 C   0  0
   21.5352  -18.9519    0.0000 N   0  0
   22.2441  -19.3585    0.0000 C   0  0
   22.9506  -18.9478    0.0000 C   0  0
   23.6595  -19.3544    0.0000 N   0  0
   22.2464  -20.1757    0.0000 O   0  0
   23.7444  -20.1647    0.0000 C   0  0
   24.5443  -20.3323    0.0000 C   0  0  1  0  0  0
   24.9508  -19.6233    0.0000 C   0  0
   24.4022  -19.0177    0.0000 C   0  0
   24.8788  -21.0778    0.0000 O   0  0
   25.6918  -21.1609    0.0000 C   0  0
   26.1702  -20.4984    0.0000 C   0  0
   26.9832  -20.5814    0.0000 N   0  0
   27.3115  -21.3272    0.0000 C   0  0
   28.1207  -21.4118    0.0000 C   0  0
   28.6027  -20.7515    0.0000 O   0  0
   28.2696  -20.0042    0.0000 C   0  0
   27.4544  -19.9173    0.0000 C   0  0
  5  1  1  0
  1  2  2  0
  2  3  1  0
  3  4  2  0
  4  6  1  0
  5  6  1  0
  6  7  2  0
  7  8  1  0
  8  9  2  0
  9  5  1  0
  2 10  1  0
 10 11  1  0
  4 12  1  0
 12 13  1  0
 11 14  2  0
 14 15  1  0
 15 16  2  0
 16 17  1  0
 17 18  2  0
 18 11  1  0
 13 19  1  0
 19 20  2  0
 20 21  1  0
 21 22  1  0
 22 13  2  0
 20 23  1  0
 16 24  1  0
 24 25  1  0
 25 26  1  0
 26 27  1  0
 25 28  2  0
 27 29  1  0
 29 30  1  0
 30 31  1  0
 31 32  1  0
 32 27  1  0
 30 33  1  1
 33 34  1  0
 34 35  1  0
 35 36  1  0
 36 37  1  0
 36 41  1  0
 37 38  1  0
 38 39  1  0
 39 40  1  0
 40 41  1  0
M  END