
  CDK    9/16/09,10:4

 28 30  0  0  0  0  0  0  0  0999 V2000
   -1.2750   -7.1333    0.0000 C   0  0  0  0  0  0  0  0  0  0  0  0
   -0.5605   -6.7208    0.0000 N   0  0  0  0  0  0  0  0  0  0  0  0
   -1.9895   -6.7208    0.0000 N   0  0  0  0  0  0  0  0  0  0  0  0
   -1.2750   -7.9583    0.0000 S   0  0  0  0  0  0  0  0  0  0  0  0
   -2.7039   -7.1333    0.0000 C   0  0  0  0  0  0  0  0  0  0  0  0
   -3.4178   -6.7177    0.0000 C   0  0  0  0  0  0  0  0  0  0  0  0
   -4.1318   -7.1295    0.0000 C   0  0  0  0  0  0  0  0  0  0  0  0
   -4.1323   -7.9554    0.0000 C   0  0  0  0  0  0  0  0  0  0  0  0
   -3.4128   -8.3677    0.0000 C   0  0  0  0  0  0  0  0  0  0  0  0
   -2.7017   -7.9535    0.0000 C   0  0  0  0  0  0  0  0  0  0  0  0
    0.1539   -7.1333    0.0000 C   0  0  0  0  0  0  0  0  0  0  0  0
    0.1514   -7.9594    0.0000 C   0  0  0  0  0  0  0  0  0  0  0  0
    0.8650   -8.3718    0.0000 C   0  0  0  0  0  0  0  0  0  0  0  0
    0.8636   -6.7213    0.0000 C   0  0  0  0  0  0  0  0  0  0  0  0
    1.5778   -7.1300    0.0000 C   0  0  0  0  0  0  0  0  0  0  0  0
    1.5815   -7.9578    0.0000 C   0  0  0  0  0  0  0  0  0  0  0  0
    2.2969   -8.3686    0.0000 S   0  0  0  0  0  0  0  0  0  0  0  0
    3.0083   -8.7792    0.0000 N   0  0  0  0  0  0  0  0  0  0  0  0
    2.7085   -7.6536    0.0000 O   0  0  0  0  0  0  0  0  0  0  0  0
    1.8885   -9.0854    0.0000 O   0  0  0  0  0  0  0  0  0  0  0  0
    3.0084   -9.6042    0.0000 C   0  0  0  0  0  0  0  0  0  0  0  0
    2.3439  -10.0928    0.0000 N   0  0  0  0  0  0  0  0  0  0  0  0
    2.5989  -10.8774    0.0000 O   0  0  0  0  0  0  0  0  0  0  0  0
    3.4240  -10.8773    0.0000 C   0  0  0  0  0  0  0  0  0  0  0  0
    3.6787  -10.0926    0.0000 C   0  0  0  0  0  0  0  0  0  0  0  0
    3.9091  -11.5446    0.0000 C   0  0  0  0  0  0  0  0  0  0  0  0
   -4.8462   -8.3688    0.0000 O   0  0  0  0  0  0  0  0  0  0  0  0
   -5.5555   -7.9573    0.0000 C   0  0  0  0  0  0  0  0  0  0  0  0
  6  7  1  0  0  0  0 
 15 14  2  0  0  0  0 
 14 11  1  0  0  0  0 
 15 16  1  0  0  0  0 
  1  4  2  0  0  0  0 
  7  8  2  0  0  0  0 
 16 17  1  0  0  0  0 
  8  9  1  0  0  0  0 
 17 18  1  0  0  0  0 
  3  5  1  0  0  0  0 
 17 19  2  0  0  0  0 
  9 10  2  0  0  0  0 
 17 20  2  0  0  0  0 
 10  5  1  0  0  0  0 
 18 21  1  0  0  0  0 
 21 22  2  0  0  0  0 
  1  3  1  0  0  0  0 
  2 11  1  0  0  0  0 
  5  6  2  0  0  0  0 
 11 12  2  0  0  0  0 
 22 23  1  0  0  0  0 
 23 24  1  0  0  0  0 
 24 25  2  0  0  0  0 
 25 21  1  0  0  0  0 
  1  2  1  0  0  0  0 
 24 26  1  0  0  0  0 
 12 13  1  0  0  0  0 
  8 27  1  0  0  0  0 
 13 16  2  0  0  0  0 
 27 28  1  0  0  0  0 
M  END