
  SciTegic04091415222D

 24 26  0  0  0  0            999 V2000
   26.9256  -30.3351    0.0000 C   0  0
   27.6308  -29.9307    0.0000 C   0  0
   27.6308  -29.1135    0.0000 C   0  0
   26.9256  -28.7007    0.0000 C   0  0
   26.9256  -31.1523    0.0000 O   0  0
   26.9256  -27.8836    0.0000 O   0  0
   26.2203  -29.9307    0.0000 C   0  0
   26.2228  -29.1153    0.0000 C   0  0
   25.5191  -28.7072    0.0000 C   0  0
   24.8123  -29.1133    0.0000 C   0  0
   24.8137  -29.9318    0.0000 C   0  0
   25.5180  -30.3362    0.0000 N   0  0
   28.3380  -30.3403    0.0000 N   0  0
   29.0463  -29.9327    0.0000 C   0  0
   29.7534  -30.3423    0.0000 C   0  0
   30.4617  -29.9348    0.0000 C   0  0
   31.1690  -30.3461    0.0000 C   0  0
   31.8769  -29.9392    0.0000 C   0  0
   31.8785  -29.1212    0.0000 C   0  0
   31.1664  -28.7117    0.0000 C   0  0
   30.4615  -29.1209    0.0000 C   0  0
   32.5863  -28.7126    0.0000 O   0  0
   32.5838  -30.3492    0.0000 C   0  0
   31.1647  -27.8945    0.0000 C   0  0
  8  4  1  0
  7  1  1  0
  1  2  1  0
  2  3  2  0
  3  4  1  0
  1  5  2  0
  4  6  2  0
  7  8  2  0
  8  9  1  0
  9 10  2  0
 10 11  1  0
 11 12  2  0
 12  7  1  0
  2 13  1  0
 13 14  1  0
 14 15  1  0
 15 16  1  0
 16 17  2  0
 17 18  1  0
 18 19  2  0
 19 20  1  0
 20 21  2  0
 21 16  1  0
 19 22  1  0
 18 23  1  0
 20 24  1  0
M  END