
  SciTegic05071317032D

 28 26  0  0  0  0            999 V2000
   35.5117   -5.6360    0.0000 N   0  0
   35.5126   -6.4641    0.0000 C   0  0
   36.2244   -6.8738    0.0000 C   0  0
   36.9397   -6.4621    0.0000 N   0  0
   36.9386   -5.6362    0.0000 C   0  0
   36.2222   -5.2219    0.0000 C   0  0
   37.6542   -6.8746    0.0000 C   0  0
   37.6542   -7.6996    0.0000 C   0  0
   38.3687   -8.1121    0.0000 C   0  0
   38.3687   -8.9371    0.0000 N   0  0
   26.9399   -5.6666    0.0000 C   0  0
   26.9388   -6.4939    0.0000 C   0  0
   27.6536   -6.9068    0.0000 C   0  0
   28.3700   -6.4935    0.0000 C   0  0
   28.3672   -5.6629    0.0000 C   0  0
   27.6518   -5.2538    0.0000 C   0  0
   29.0800   -5.2477    0.0000 O   0  0
   29.7961   -5.6576    0.0000 C   0  0
   30.5089   -5.2424    0.0000 C   0  0
   31.2250   -5.6521    0.0000 C   0  0
   31.9380   -5.2370    0.0000 C   0  0
   32.6539   -5.6468    0.0000 C   0  0
   33.3669   -5.2316    0.0000 C   0  0
   34.0828   -5.6414    0.0000 C   0  0
   34.7958   -5.2262    0.0000 C   0  0
   32.7983   -8.4853    0.0000 Cl  0  0
   35.4750   -8.6036    0.0000 Cl  0  0
   34.3259   -9.9295    0.0000 Cl  0  0
  1  2  1  0
  1  6  1  0
  2  3  1  0
  3  4  1  0
  4  5  1  0
  5  6  1  0
  4  7  1  0
  7  8  1  0
  8  9  1  0
  9 10  1  0
 11 12  2  0
 12 13  1  0
 13 14  2  0
 14 15  1  0
 15 16  2  0
 16 11  1  0
 15 17  1  0
 17 18  1  0
 18 19  1  0
 19 20  1  0
 20 21  1  0
 21 22  1  0
 22 23  1  0
 23 24  1  0
 24 25  1  0
 25  1  1  0
M  END