
  Mrv0541 05211314572D          

 25 23  0  0  0  0            999 V2000
   -3.7252   -0.2019    0.0000 C   0  0  0  0  0  0  0  0  0  0  0  0
   -3.8114   -1.0224    0.0000 N   0  0  0  0  0  0  0  0  0  0  0  0
    4.2203    1.0310    0.0000 N   0  0  0  0  0  0  0  0  0  0  0  0
   -4.4788    0.1336    0.0000 C   0  0  0  0  0  0  0  0  0  0  0  0
    0.5617   -0.2019    0.0000 C   0  0  0  0  0  0  0  0  0  0  0  0
   -4.6184   -1.1939    0.0000 C   0  0  0  0  0  0  0  0  0  0  0  0
   -5.0309   -0.4795    0.0000 N   0  0  0  0  0  0  0  0  0  0  0  0
    5.4397    0.4881    0.0000 N   0  0  0  0  0  0  0  0  0  0  0  0
    5.0272    1.2026    0.0000 C   0  0  0  0  0  0  0  0  0  0  0  0
    4.1340    0.2106    0.0000 C   0  0  0  0  0  0  0  0  0  0  0  0
    0.5617   -1.0269    0.0000 N   0  0  0  0  0  0  0  0  0  0  0  0
    4.8877   -0.1250    0.0000 C   0  0  0  0  0  0  0  0  0  0  0  0
   -0.1528    0.2106    0.0000 N   0  0  0  0  0  0  0  0  0  0  0  0
    1.2761    0.2106    0.0000 S   0  0  0  0  0  0  0  0  0  0  0  0
   -3.0107    0.2106    0.0000 C   0  0  0  0  0  0  0  0  0  0  0  0
   -2.2962   -0.2019    0.0000 S   0  0  0  0  0  0  0  0  0  0  0  0
    7.6790    0.0000    0.0000 Cl  0  0  0  0  0  0  0  0  0  0  0  0
    0.0000   -2.8439    0.0000 Cl  0  0  0  0  0  0  0  0  0  0  0  0
    2.2393   -2.8439    0.0000 Cl  0  0  0  0  0  0  0  0  0  0  0  0
   -4.6504    0.9406    0.0000 C   0  0  0  0  0  0  0  0  0  0  0  0
    3.4196   -0.2019    0.0000 C   0  0  0  0  0  0  0  0  0  0  0  0
   -0.8673   -0.2019    0.0000 C   0  0  0  0  0  0  0  0  0  0  0  0
    1.9906   -0.2019    0.0000 C   0  0  0  0  0  0  0  0  0  0  0  0
   -1.5817    0.2106    0.0000 C   0  0  0  0  0  0  0  0  0  0  0  0
    2.7051    0.2106    0.0000 C   0  0  0  0  0  0  0  0  0  0  0  0
  1  2  1  0  0  0  0
  1  4  2  0  0  0  0
  2  6  2  0  0  0  0
  4  7  1  0  0  0  0
  6  7  1  0  0  0  0
  3  9  2  0  0  0  0
  8  9  1  0  0  0  0
  3 10  1  0  0  0  0
  5 11  1  0  0  0  0
  8 12  1  0  0  0  0
 10 12  2  0  0  0  0
  5 13  2  0  0  0  0
  5 14  1  0  0  0  0
  1 15  1  0  0  0  0
 15 16  1  0  0  0  0
  4 20  1  0  0  0  0
 10 21  1  0  0  0  0
 13 22  1  0  0  0  0
 14 23  1  0  0  0  0
 16 24  1  0  0  0  0
 22 24  1  0  0  0  0
 21 25  1  0  0  0  0
 23 25  1  0  0  0  0
M  END