
  SciTegic11201309402D

 53 57  0  0  0  0            999 V2000
   -3.1583   -0.8042    0.0000 N   0  0
   -2.4439   -0.3917    0.0000 C   0  0  2  0  0  0
   -1.7294   -0.8042    0.0000 C   0  0
   -1.0149   -0.3917    0.0000 N   0  0
   -1.7294   -1.6292    0.0000 O   0  0
   -0.3032   -0.8018    0.0000 C   0  0  1  0  0  0
    0.4091   -0.3928    0.0000 C   0  0
   -1.0195    0.4366    0.0000 C   0  0
   -0.3009    0.8473    0.0000 C   0  0
    0.4094    0.4309    0.0000 C   0  0
    1.1230    0.8378    0.0000 C   0  0
    1.1275    1.6609    0.0000 C   0  0
    0.4125    2.0754    0.0000 C   0  0
   -0.2982    1.6661    0.0000 C   0  0
   -0.3039   -1.6268    0.0000 C   0  0
   -1.0187   -2.0387    0.0000 O   0  0
    0.4103   -2.0398    0.0000 N   0  0
    1.1251   -1.6279    0.0000 C   0  0  2  0  0  0
    1.8392   -2.0410    0.0000 C   0  0
    2.5540   -1.6290    0.0000 N   0  0
    1.8386   -2.8660    0.0000 O   0  0
    1.1257   -0.8029    0.0000 C   0  0
    1.8405   -0.3910    0.0000 C   0  0
    1.8412    0.4340    0.0000 C   0  0
    2.5560    0.8460    0.0000 C   0  0
    3.2701    0.4329    0.0000 N   0  0
   -2.4439    0.4333    0.0000 C   0  0
   -3.1583    0.8458    0.0000 C   0  0
   -3.1556    1.6719    0.0000 C   0  0
   -3.8692    2.0843    0.0000 C   0  0
   -4.5846    1.6718    0.0000 C   0  0
   -4.5820    0.8425    0.0000 C   0  0
   -3.8678    0.4338    0.0000 C   0  0
   -3.8651   -0.3912    0.0000 C   0  0
   -2.4403    2.0831    0.0000 C   0  0
   -5.2997    2.0833    0.0000 O   0  0
    3.2682   -2.0421    0.0000 C   0  0
    3.9830   -1.6301    0.0000 C   0  0
    4.6960   -2.0453    0.0000 C   0  0
    5.4103   -1.6341    0.0000 C   0  0
    5.4114   -0.8082    0.0000 C   0  0
    4.6922   -0.3953    0.0000 C   0  0
    3.9809   -0.8089    0.0000 C   0  0
    3.9849    0.8449    0.0000 C   0  0
    4.6990    0.4318    0.0000 O   0  0
    3.9855    1.6699    0.0000 O   0  0
    5.4138    0.8437    0.0000 C   0  0
    6.1280    0.4307    0.0000 C   0  0
    6.1257   -0.3927    0.0000 C   0  0
    6.8390   -0.8057    0.0000 C   0  0
    7.5548   -0.3937    0.0000 C   0  0
    7.5528    0.4355    0.0000 C   0  0
    6.8389    0.8448    0.0000 C   0  0
 28 29  2  0
 13 14  2  0
 29 30  1  0
 14  9  1  0
 30 31  2  0
 31 32  1  0
  6 15  1  1
 32 33  2  0
 33 28  1  0
  4  8  1  0
 33 34  1  0
 15 16  2  0
 29 35  1  0
  6  7  1  0
 31 36  1  0
 15 17  1  0
 20 37  1  0
  7 10  1  0
 37 38  1  0
 18 17  1  1
 38 39  2  0
  9  8  1  0
 39 40  1  0
 18 19  1  0
 40 41  2  0
  3  4  1  0
 41 42  1  0
 19 20  1  0
 42 43  2  0
 43 38  1  0
  2  1  1  1
 26 44  1  0
 19 21  2  0
 44 45  1  0
  9 10  2  0
 44 46  2  0
 18 22  1  0
 45 47  1  0
  3  5  2  0
 47 48  1  0
 22 23  1  0
 48 49  2  0
 10 11  1  0
 49 50  1  0
 23 24  1  0
 50 51  2  0
  6  4  1  0
 51 52  1  0
 24 25  1  0
 52 53  2  0
 53 48  1  0
 11 12  2  0
 25 26  1  0
  2 27  1  0
 12 13  1  0
 27 28  1  0
  2  3  1  0
M  END