
  SciTegic10191216022D

 30 33  0  0  0  0            999 V2000
    6.0713   -9.2444    0.0000 C   0  0
    6.0700  -10.0721    0.0000 C   0  0
    6.7830  -10.4850    0.0000 C   0  0
    6.7810   -8.8317    0.0000 C   0  0
    7.4992   -9.2405    0.0000 C   0  0
    7.4982  -10.0740    0.0000 C   0  0
    8.2157  -10.4894    0.0000 C   0  0
    8.9387  -10.0757    0.0000 N   0  0
    8.9396   -9.2420    0.0000 C   0  0
    8.2176   -8.8221    0.0000 C   0  0
    8.2174   -7.9972    0.0000 C   0  0
    8.9307   -7.5876    0.0000 C   0  0
    8.9308   -6.7634    0.0000 C   0  0
    8.2157   -6.3504    0.0000 C   0  0
    7.4990   -6.7675    0.0000 C   0  0
    7.5024   -7.5904    0.0000 C   0  0
    9.6522  -10.4900    0.0000 C   0  0
    5.3550  -10.4836    0.0000 O   0  0
    4.6411  -10.0700    0.0000 C   0  0
    4.6423   -9.2450    0.0000 C   0  0
    3.9284   -8.8315    0.0000 C   0  0
    3.9296   -8.0065    0.0000 N   0  0
    4.6478   -7.5975    0.0000 C   0  0
    4.6510   -6.7761    0.0000 C   0  0
    3.9390   -6.3587    0.0000 C   0  0
    3.2220   -6.7689    0.0000 C   0  0
    3.2171   -7.5965    0.0000 C   0  0
    3.9432   -5.5337    0.0000 F   0  0
    9.6454   -6.3511    0.0000 O   0  0
   10.3597   -6.7637    0.0000 C   0  0
  1  2  2  0
 14 15  1  0
  5  4  2  0
 15 16  2  0
 16 11  1  0
  4  1  1  0
  8 17  1  0
  5 10  1  0
  2 18  1  0
  6  7  1  0
 18 19  1  0
  7  8  1  0
 19 20  1  0
  8  9  1  0
 20 21  1  0
  9 10  1  0
 21 22  1  0
 22 23  1  0
  5  6  1  0
 10 11  1  0
 11 12  2  0
  2  3  1  0
 22 27  1  0
 23 24  1  0
 24 25  1  0
 25 26  1  0
 26 27  1  0
 12 13  1  0
 25 28  1  0
  3  6  2  0
 13 29  1  0
 13 14  2  0
 29 30  1  0
M  END