
          11290714382D 1   1.00000     0.00000     0

 62 66  0     1  0            999 V2000
    3.1764   -1.2834    0.0000 C   0  0  0  0  0  0           0  0  0
    3.9007   -1.6785    0.0000 C   0  0  0  0  0  0           0  0  0
    4.6001   -1.2489    0.0000 N   0  0  3  0  0  0           0  0  0
    4.5826   -0.4283    0.0000 C   0  0  0  0  0  0           0  0  0
    3.8583   -0.0333    0.0000 C   0  0  0  0  0  0           0  0  0
    3.1516   -0.4588    0.0000 C   0  0  3  0  0  0           0  0  0
    3.1252    0.3630    0.0000 C   0  0  0  0  0  0           0  0  0
    2.4440   -0.8830    0.0000 N   0  0  0  0  0  0           0  0  0
    3.8261    0.7982    0.0000 O   0  0  0  0  0  0           0  0  0
    2.3979    0.7523    0.0000 N   0  0  0  0  0  0           0  0  0
    5.3244   -1.6440    0.0000 C   0  0  0  0  0  0           0  0  0
    2.3714    1.5769    0.0000 C   0  0  2  0  0  0           0  0  0
    1.6441    1.9663    0.0000 C   0  0  0  0  0  0           0  0  0
    3.0723    2.0121    0.0000 C   0  0  0  0  0  0           0  0  0
    3.0458    2.8367    0.0000 C   0  0  0  0  0  0           0  0  0
    3.7467    3.2719    0.0000 N   0  0  0  0  0  0           0  0  0
    2.3185    3.2261    0.0000 O   0  0  0  0  0  0           0  0  0
    1.6176    2.7909    0.0000 O   0  0  0  0  0  0           0  0  0
    0.9432    1.5311    0.0000 N   0  0  0  0  0  0           0  0  0
    0.2159    1.9204    0.0000 C   0  0  0  0  0  0           0  0  0
   -0.4850    1.4852    0.0000 C   0  0  0  0  0  0           0  0  0
   -1.2123    1.8746    0.0000 C   0  0  0  0  0  0           0  0  0
   -1.9132    1.4394    0.0000 C   0  0  0  0  0  0           0  0  0
   -2.6378    1.8314    0.0000 C   0  0  0  0  0  0           0  0  0
   -2.5798    0.1824    0.0000 C   0  0  0  0  0  0           0  0  0
   -1.8824    0.6191    0.0000 C   0  0  0  0  0  0           0  0  0
   -3.3121    0.5714    0.0000 C   0  0  0  0  0  0           0  0  0
   -3.3357    1.3955    0.0000 C   0  0  0  0  0  0           0  0  0
   -4.0599    1.7854    0.0000 C   0  0  0  0  0  0           0  0  0
   -4.7611    1.3523    0.0000 C   0  0  0  0  0  0           0  0  0
   -4.7335    0.5252    0.0000 C   0  0  0  0  0  0           0  0  0
   -4.0088    0.1391    0.0000 C   0  0  0  0  0  0           0  0  0
    1.7228   -0.4823    0.0000 C   0  0  0  0  0  0           0  0  0
    1.0152   -0.9065    0.0000 C   0  0  2  0  0  0           0  0  0
    1.7093    0.3426    0.0000 O   0  0  0  0  0  0           0  0  0
    0.2941   -0.5058    0.0000 C   0  0  0  0  0  0           0  0  0
   -0.4135   -0.9299    0.0000 C   0  0  0  0  0  0           0  0  0
   -1.1341   -0.5275    0.0000 C   0  0  0  0  0  0           0  0  0
   -1.8412   -0.9510    0.0000 C   0  0  0  0  0  0           0  0  0
   -1.8281   -1.7768    0.0000 C   0  0  0  0  0  0           0  0  0
   -1.1019   -2.1773    0.0000 C   0  0  0  0  0  0           0  0  0
   -0.3978   -1.7515    0.0000 C   0  0  0  0  0  0           0  0  0
    1.0288   -1.7314    0.0000 C   0  0  0  0  0  0           0  0  0
    1.7499   -2.1321    0.0000 C   0  0  0  0  0  0           0  0  0
    1.7668   -2.9576    0.0000 O   0  0  0  0  0  0           0  0  0
    2.4608   -1.7086    0.0000 O   0  0  0  0  0  0           0  0  0
   -2.5351   -2.2019    0.0000 C   0  0  0  0  0  0           0  0  0
   -3.2568   -1.8022    0.0000 P   0  0  3  0  0  0           0  0  0
   -3.9750   -1.3875    0.0000 O   0  0  0  0  0  0           0  0  0
   -3.6630   -2.5203    0.0000 O   0  0  0  0  0  0           0  0  0
   -2.8469   -1.0862    0.0000 O   0  0  0  0  0  0           0  0  0
    5.3444   -2.4688    0.0000 O   0  0  0  0  0  0           0  0  0
    6.0286   -1.2143    0.0000 C   0  0  0  0  0  0           0  0  0
    6.7529   -1.6094    0.0000 C   0  0  0  0  0  0           0  0  0
    7.4571   -1.1796    0.0000 C   0  0  0  0  0  0           0  0  0
    8.1814   -1.5747    0.0000 C   0  0  0  0  0  0           0  0  0
    8.8857   -1.1450    0.0000 C   0  0  0  0  0  0           0  0  0
    9.6055   -1.5435    0.0000 C   0  0  0  0  0  0           0  0  0
   10.3093   -1.1145    0.0000 C   0  0  0  0  0  0           0  0  0
   10.2897   -0.2888    0.0000 C   0  0  0  0  0  0           0  0  0
    9.5604    0.1060    0.0000 C   0  0  0  0  0  0           0  0  0
    8.8596   -0.3253    0.0000 C   0  0  0  0  0  0           0  0  0
 14 15  1  0     0  0
 30 31  2  0     0  0
  1  2  1  0     0  0
 31 32  1  0     0  0
 32 27  2  0     0  0
 15 16  1  0     0  0
  8 33  1  0     0  0
  6  8  1  0     0  0
 33 34  1  0     0  0
 15 17  2  0     0  0
 33 35  2  0     0  0
  1  6  1  0     0  0
 34 36  1  0     0  0
 13 18  2  0     0  0
 36 37  1  0     0  0
  7  9  2  0     0  0
 37 38  2  0     0  0
 13 19  1  0     0  0
 38 39  1  0     0  0
  2  3  1  0     0  0
 39 40  2  0     0  0
 19 20  1  0     0  0
 40 41  1  0     0  0
  7 10  1  0     0  0
 41 42  2  0     0  0
 42 37  1  0     0  0
 20 21  1  0     0  0
 34 43  1  1     0  0
  3  4  1  0     0  0
 43 44  1  0     0  0
 21 22  1  0     0  0
  3 11  1  0     0  0
 44 45  1  0     0  0
 44 46  2  0     0  0
 22 23  1  0     0  0
 40 47  1  0     0  0
  4  5  1  0     0  0
 47 48  1  0     0  0
 23 24  2  0     0  0
 48 49  2  0     0  0
 24 28  1  0     0  0
 48 50  1  0     0  0
 10 12  1  0     0  0
 48 51  1  0     0  0
 27 25  1  0     0  0
 11 52  2  0     0  0
  5  6  1  0     0  0
 11 53  1  0     0  0
 25 26  2  0     0  0
 53 54  1  0     0  0
 26 23  1  0     0  0
 54 55  1  0     0  0
 12 13  1  0     0  0
 55 56  1  0     0  0
 56 57  1  0     0  0
 27 28  1  0     0  0
 57 58  2  0     0  0
 12 14  1  6     0  0
 58 59  1  0     0  0
 28 29  2  0     0  0
 59 60  2  0     0  0
  6  7  1  0     0  0
 60 61  1  0     0  0
 29 30  1  0     0  0
 61 62  2  0     0  0
 62 57  1  0     0  0
M  END