
          05080814042D 1   1.00000     0.00000     0

 37 41  0     1  0            999 V2000
    7.1095   -6.1191    0.0000 C   0  0  0  0  0  0           0  0  0
    6.3988   -6.5339    0.0000 C   0  0  0  0  0  0           0  0  0
    6.4058   -7.3602    0.0000 C   0  0  0  0  0  0           0  0  0
    7.1196   -7.7636    0.0000 C   0  0  0  0  0  0           0  0  0
    7.8227   -6.5263    0.0000 C   0  0  0  0  0  0           0  0  0
    7.8288   -7.3538    0.0000 C   0  0  0  0  0  0           0  0  0
    8.5445   -7.7602    0.0000 C   0  0  0  0  0  0           0  0  0
    8.5324   -6.1049    0.0000 C   0  0  0  0  0  0           0  0  0
    9.2529   -6.5158    0.0000 C   0  0  2  0  0  0           0  0  0
    9.2574   -7.3453    0.0000 C   0  0  2  0  0  0           0  0  0
    9.9741   -7.7539    0.0000 N   0  0  3  0  0  0           0  0  0
   10.6908   -7.3375    0.0000 C   0  0  0  0  0  0           0  0  0
   10.6862   -6.5080    0.0000 C   0  0  1  0  0  0           0  0  0
    9.9650   -6.0949    0.0000 C   0  0  0  0  0  0           0  0  0
    9.2450   -5.6870    0.0000 H   0  0  0  0  0  0           0  0  0
    9.2492   -8.1701    0.0000 H   0  0  0  0  0  0           0  0  0
   11.3989   -6.0924    0.0000 C   0  0  0  0  0  0           0  0  0
   12.1151   -6.5016    0.0000 N   0  0  3  0  0  0           0  0  0
   11.3952   -5.2674    0.0000 O   0  0  0  0  0  0           0  0  0
   12.1128   -7.3296    0.0000 C   0  0  0  0  0  0           0  0  0
   12.8249   -7.7389    0.0000 C   0  0  0  0  0  0           0  0  0
   13.5399   -7.3267    0.0000 N   0  0  3  0  0  0           0  0  0
   13.5382   -6.5008    0.0000 C   0  0  0  0  0  0           0  0  0
   12.8214   -6.0871    0.0000 C   0  0  0  0  0  0           0  0  0
    7.1056   -5.2942    0.0000 O   0  0  0  0  0  0           0  0  0
    6.3891   -4.8852    0.0000 C   0  0  0  0  0  0           0  0  0
    9.9774   -8.5788    0.0000 C   0  0  0  0  0  0           0  0  0
   14.2546   -7.7387    0.0000 C   0  0  0  0  0  0           0  0  0
   14.2507   -8.5628    0.0000 C   0  0  0  0  0  0           0  0  0
   14.9646   -8.9747    0.0000 C   0  0  0  0  0  0           0  0  0
   15.6796   -8.5617    0.0000 C   0  0  0  0  0  0           0  0  0
   15.6764   -7.7325    0.0000 C   0  0  0  0  0  0           0  0  0
   14.9620   -7.3243    0.0000 N   0  0  0  0  0  0           0  0  0
   16.3948   -8.9727    0.0000 C   0  0  3  0  0  0           0  0  0
   17.1068   -9.3825    0.0000 F   0  0  0  0  0  0           0  0  0
   16.8061   -8.2577    0.0000 F   0  0  0  0  0  0           0  0  0
   15.9867   -9.6895    0.0000 F   0  0  0  0  0  0           0  0  0
  7 10  1  0     0  0
 17 18  1  0     0  0
  9  8  1  0     0  0
 17 19  2  0     0  0
 18 20  1  0     0  0
  9 10  1  0     0  0
  3  4  2  0     0  0
  4  6  1  0     0  0
  5  6  2  0     0  0
  1  2  2  0     0  0
 18 24  1  0     0  0
 20 21  1  0     0  0
 21 22  1  0     0  0
 22 23  1  0     0  0
 23 24  1  0     0  0
  5  1  1  0     0  0
  1 25  1  0     0  0
  2  3  1  0     0  0
 25 26  1  0     0  0
  9 14  1  0     0  0
 11 27  1  0     0  0
 10 11  1  0     0  0
 22 28  1  0     0  0
 11 12  1  0     0  0
 28 29  2  0     0  0
 12 13  1  0     0  0
 29 30  1  0     0  0
 13 14  1  0     0  0
 30 31  2  0     0  0
 31 32  1  0     0  0
  9 15  1  6     0  0
 32 33  2  0     0  0
 33 28  1  0     0  0
  5  8  1  0     0  0
 31 34  1  0     0  0
 10 16  1  1     0  0
 34 35  1  0     0  0
  6  7  1  0     0  0
 34 36  1  0     0  0
 13 17  1  1     0  0
 34 37  1  0     0  0
M  END