
          11290714382D 1   1.00000     0.00000     0

 61 65  0     1  0            999 V2000
    3.7056  -14.2418    0.0000 C   0  0  0  0  0  0           0  0  0
    4.4298  -14.6368    0.0000 C   0  0  0  0  0  0           0  0  0
    5.1293  -14.2073    0.0000 N   0  0  3  0  0  0           0  0  0
    5.1117  -13.3867    0.0000 C   0  0  0  0  0  0           0  0  0
    4.3875  -12.9916    0.0000 C   0  0  0  0  0  0           0  0  0
    3.6807  -13.4172    0.0000 C   0  0  3  0  0  0           0  0  0
    3.6544  -12.5954    0.0000 C   0  0  0  0  0  0           0  0  0
    2.9731  -13.8413    0.0000 N   0  0  0  0  0  0           0  0  0
    4.3552  -12.1602    0.0000 O   0  0  0  0  0  0           0  0  0
    2.9270  -12.2060    0.0000 N   0  0  0  0  0  0           0  0  0
    5.8535  -14.6023    0.0000 C   0  0  0  0  0  0           0  0  0
    2.9006  -11.3814    0.0000 C   0  0  2  0  0  0           0  0  0
    2.1732  -10.9921    0.0000 C   0  0  0  0  0  0           0  0  0
    3.6014  -10.9462    0.0000 C   0  0  0  0  0  0           0  0  0
    3.5750  -10.1217    0.0000 C   0  0  0  0  0  0           0  0  0
    4.2759   -9.6865    0.0000 N   0  0  0  0  0  0           0  0  0
    2.8477   -9.7323    0.0000 O   0  0  0  0  0  0           0  0  0
    2.1468  -10.1675    0.0000 O   0  0  0  0  0  0           0  0  0
    1.4724  -11.4273    0.0000 N   0  0  0  0  0  0           0  0  0
    0.7450  -11.0379    0.0000 C   0  0  0  0  0  0           0  0  0
    0.0442  -11.4731    0.0000 C   0  0  0  0  0  0           0  0  0
   -0.6832  -11.0837    0.0000 C   0  0  0  0  0  0           0  0  0
   -1.3840  -11.5189    0.0000 C   0  0  0  0  0  0           0  0  0
   -2.1086  -11.1270    0.0000 C   0  0  0  0  0  0           0  0  0
   -2.0506  -12.7760    0.0000 C   0  0  0  0  0  0           0  0  0
   -1.3532  -12.3392    0.0000 C   0  0  0  0  0  0           0  0  0
   -2.7830  -12.3869    0.0000 C   0  0  0  0  0  0           0  0  0
   -2.8065  -11.5629    0.0000 C   0  0  0  0  0  0           0  0  0
   -3.5307  -11.1730    0.0000 C   0  0  0  0  0  0           0  0  0
   -4.2320  -11.6060    0.0000 C   0  0  0  0  0  0           0  0  0
   -4.2043  -12.4331    0.0000 C   0  0  0  0  0  0           0  0  0
   -3.4796  -12.8193    0.0000 C   0  0  0  0  0  0           0  0  0
    2.2520  -13.4406    0.0000 C   0  0  0  0  0  0           0  0  0
    1.5444  -13.8648    0.0000 C   0  0  2  0  0  0           0  0  0
    2.2384  -12.6157    0.0000 O   0  0  0  0  0  0           0  0  0
    0.8232  -13.4641    0.0000 C   0  0  0  0  0  0           0  0  0
    0.1156  -13.8883    0.0000 C   0  0  0  0  0  0           0  0  0
   -0.6049  -13.4859    0.0000 C   0  0  0  0  0  0           0  0  0
   -1.3121  -13.9094    0.0000 C   0  0  0  0  0  0           0  0  0
   -1.2989  -14.7351    0.0000 C   0  0  0  0  0  0           0  0  0
   -0.5728  -15.1356    0.0000 C   0  0  0  0  0  0           0  0  0
    0.1314  -14.7098    0.0000 C   0  0  0  0  0  0           0  0  0
    1.5579  -14.6897    0.0000 C   0  0  0  0  0  0           0  0  0
    2.2791  -15.0904    0.0000 C   0  0  0  0  0  0           0  0  0
    2.2959  -15.9160    0.0000 O   0  0  0  0  0  0           0  0  0
    2.9900  -14.6669    0.0000 O   0  0  0  0  0  0           0  0  0
   -2.0060  -15.1602    0.0000 C   0  0  0  0  0  0           0  0  0
   -2.7277  -14.7605    0.0000 P   0  0  3  0  0  0           0  0  0
   -3.4458  -14.3458    0.0000 O   0  0  0  0  0  0           0  0  0
   -3.1338  -15.4786    0.0000 O   0  0  0  0  0  0           0  0  0
   -2.3177  -14.0446    0.0000 O   0  0  0  0  0  0           0  0  0
    5.8735  -15.4271    0.0000 O   0  0  0  0  0  0           0  0  0
    6.5578  -14.1726    0.0000 N   0  0  0  0  0  0           0  0  0
    7.2820  -14.5677    0.0000 C   0  0  0  0  0  0           0  0  0
    7.9863  -14.1380    0.0000 C   0  0  0  0  0  0           0  0  0
    8.7106  -14.5330    0.0000 C   0  0  0  0  0  0           0  0  0
    8.7255  -15.3551    0.0000 C   0  0  0  0  0  0           0  0  0
    9.4489  -15.7501    0.0000 C   0  0  0  0  0  0           0  0  0
   10.1542  -15.3203    0.0000 C   0  0  0  0  0  0           0  0  0
   10.1314  -14.4914    0.0000 C   0  0  0  0  0  0           0  0  0
    9.4075  -14.1001    0.0000 C   0  0  0  0  0  0           0  0  0
 29 30  1  0     0  0
 14 15  1  0     0  0
 30 31  2  0     0  0
  1  2  1  0     0  0
 31 32  1  0     0  0
 32 27  2  0     0  0
 15 16  1  0     0  0
  8 33  1  0     0  0
  6  8  1  0     0  0
 33 34  1  0     0  0
 15 17  2  0     0  0
 33 35  2  0     0  0
  1  6  1  0     0  0
 34 36  1  0     0  0
 13 18  2  0     0  0
 36 37  1  0     0  0
  7  9  2  0     0  0
 37 38  2  0     0  0
 13 19  1  0     0  0
 38 39  1  0     0  0
  2  3  1  0     0  0
 39 40  2  0     0  0
 19 20  1  0     0  0
 40 41  1  0     0  0
  7 10  1  0     0  0
 41 42  2  0     0  0
 42 37  1  0     0  0
 20 21  1  0     0  0
 34 43  1  1     0  0
  3  4  1  0     0  0
 43 44  1  0     0  0
 21 22  1  0     0  0
  3 11  1  0     0  0
 44 45  1  0     0  0
 44 46  2  0     0  0
 22 23  1  0     0  0
 40 47  1  0     0  0
  4  5  1  0     0  0
 47 48  1  0     0  0
 23 24  2  0     0  0
 48 49  2  0     0  0
 24 28  1  0     0  0
 48 50  1  0     0  0
 10 12  1  0     0  0
 48 51  1  0     0  0
 27 25  1  0     0  0
 11 52  2  0     0  0
  5  6  1  0     0  0
 11 53  1  0     0  0
 25 26  2  0     0  0
 53 54  1  0     0  0
 26 23  1  0     0  0
 54 55  1  0     0  0
 12 13  1  0     0  0
 55 56  1  0     0  0
 56 57  2  0     0  0
 27 28  1  0     0  0
 57 58  1  0     0  0
 12 14  1  6     0  0
 58 59  2  0     0  0
 28 29  2  0     0  0
 59 60  1  0     0  0
  6  7  1  0     0  0
 60 61  2  0     0  0
 61 56  1  0     0  0
M  END