
  SciTegic08161218152D

 41 42  0  0  0  0            999 V2000
    1.0087    2.3051    0.0000 C   0  0  2  0  0  0
    0.2942    1.8926    0.0000 C   0  0  1  0  0  0
    0.2942    1.0676    0.0000 C   0  0  1  0  0  0
    1.0087    0.6551    0.0000 C   0  0  1  0  0  0
    1.7231    1.0676    0.0000 C   0  0  1  0  0  0
    1.7231    1.8926    0.0000 O   0  0
    2.4376    0.6551    0.0000 O   0  0
    1.0087   -0.1699    0.0000 O   0  0
   -0.4203    0.6551    0.0000 O   0  0
   -0.4203    2.3051    0.0000 O   0  0
    1.0087    3.1301    0.0000 C   0  0
    0.2942    3.5426    0.0000 O   0  0
    3.1521    1.0676    0.0000 C   0  0
   -1.1347    1.0676    0.0000 C   0  0
   -1.8492    0.6551    0.0000 C   0  0
   -1.1347    1.8926    0.0000 O   0  0
   -2.5637    1.0676    0.0000 C   0  0
   -3.2782    0.6551    0.0000 C   0  0
   -3.2782   -0.1699    0.0000 C   0  0
   -2.5637   -0.5824    0.0000 C   0  0
   -1.8492   -0.1699    0.0000 C   0  0
    0.2942   -0.5824    0.0000 P   0  0
   -0.4203   -0.9949    0.0000 O   0  0
   -0.1183    0.1321    0.0000 O   0  0
    0.7067   -1.2968    0.0000 O   0  0
   -0.4203   -1.8199    0.0000 C   0  0
    0.2942   -2.2324    0.0000 C   0  0
    1.0087   -1.8199    0.0000 C   0  0
    1.7231   -2.2324    0.0000 C   0  0
    1.7231   -3.0574    0.0000 C   0  0
    1.0087   -3.4699    0.0000 C   0  0
    0.2942   -3.0574    0.0000 C   0  0
    6.6289   -0.1021    0.0000 N   0  0
    7.4539   -0.1021    0.0000 C   0  0
    6.2164   -0.8165    0.0000 C   0  0
    6.2164    0.6124    0.0000 C   0  0
    5.3914   -0.8165    0.0000 C   0  0
    7.8664    0.6124    0.0000 C   0  0
    5.3914    0.6124    0.0000 C   0  0
   -3.9926   -0.5824    0.0000 C   0  0
    2.4376   -3.4699    0.0000 C   0  0
 18 19  2  0
  3  9  1  1
 19 20  1  0
  1  6  1  0
 20 21  2  0
 21 15  1  0
  2 10  1  1
  8 22  1  0
  2  3  1  0
 22 23  1  0
  1 11  1  1
 22 24  1  0
  3  4  1  0
 22 25  2  0
 11 12  1  0
 23 26  1  0
  4  5  1  0
 26 27  1  0
  7 13  1  0
 27 28  2  0
  5  6  1  0
 28 29  1  0
  9 14  1  0
 29 30  2  0
 30 31  1  0
 14 15  1  0
 31 32  2  0
 32 27  1  0
  5  7  1  1
 14 16  2  0
 33 34  1  0
 33 35  1  0
 15 17  2  0
 33 36  1  0
  4  8  1  1
 35 37  1  0
 17 18  1  0
 34 38  1  0
  1  2  1  0
 36 39  1  0
 19 40  1  0
 30 41  1  0
M  END