
  SciTegic01161211232D

 40 44  0  0  0  0            999 V2000
   10.6622  -24.3819    0.0000 C   0  0
   11.3787  -23.9685    0.0000 C   0  0
   11.3758  -23.1380    0.0000 C   0  0
   10.6604  -22.7289    0.0000 C   0  0
    9.9474  -23.9690    0.0000 C   0  0
    9.9440  -23.1401    0.0000 C   0  0
   12.0887  -22.7228    0.0000 C   0  0
   12.8047  -23.1326    0.0000 N   0  0
   12.0856  -21.8978    0.0000 O   0  0
   13.5177  -22.7174    0.0000 C   0  0
   14.2337  -23.1272    0.0000 C   0  0
   14.2337  -23.9511    0.0000 C   0  0
   14.9488  -24.3608    0.0000 C   0  0
   15.6627  -23.9456    0.0000 C   0  0
   15.6570  -23.1163    0.0000 C   0  0
   14.9412  -22.7103    0.0000 C   0  0
   16.3644  -22.7000    0.0000 C   0  0
   17.0822  -23.1090    0.0000 C   0  0
   17.7931  -22.6920    0.0000 C   0  0
   17.7875  -21.8661    0.0000 C   0  0
   17.0651  -21.4590    0.0000 C   0  0
   16.3571  -21.8784    0.0000 C   0  0
   18.5104  -23.0996    0.0000 C   0  0
   18.5210  -23.9206    0.0000 N   0  0
   17.8117  -24.3460    0.0000 C   0  0
   17.8266  -25.1673    0.0000 C   0  0  2  0  0  0
   18.5477  -25.5689    0.0000 N   0  0
   19.2553  -25.1430    0.0000 C   0  0
   19.2420  -24.3155    0.0000 C   0  0
    9.2292  -22.7282    0.0000 C   0  0
    9.2286  -21.9032    0.0000 N   0  0
   17.1192  -25.5918    0.0000 C   0  0
   16.3793  -24.3544    0.0000 F   0  0
    9.9412  -21.4925    0.0000 C   0  0
    9.9425  -20.6711    0.0000 C   0  0
    9.2296  -20.2553    0.0000 N   0  0
    8.5136  -20.6672    0.0000 C   0  0
    8.5106  -21.4948    0.0000 C   0  0
    9.2320  -19.4303    0.0000 C   0  0
    9.9477  -19.0200    0.0000 O   0  0
 19 20  2  0
  8 10  1  0
 20 21  1  0
  5  6  2  0
 21 22  2  0
 22 17  1  0
 15 17  1  0
 10 11  1  0
 19 23  1  0
  1  2  2  0
 23 24  1  0
 24 25  1  0
 11 12  2  0
  5  1  1  0
 12 13  1  0
  2  3  1  0
 13 14  2  0
 24 29  1  0
 25 26  1  0
 26 27  1  0
 27 28  1  0
 28 29  1  0
  3  7  1  0
  6 30  1  0
 14 15  1  0
 30 31  1  0
 26 32  1  1
 15 16  2  0
 14 33  1  0
 31 34  1  0
 16 11  1  0
  7  8  1  0
  3  4  2  0
 17 18  2  0
  7  9  2  0
 31 38  1  0
 34 35  1  0
 35 36  1  0
 36 37  1  0
 37 38  1  0
 18 19  1  0
 36 39  1  0
  4  6  1  0
 39 40  2  0
M  END