
  SciTegic05061409512D

 37 39  0  0  0  0            999 V2000
   12.3998  -17.4711    0.0000 S   0  0
   11.5747  -17.4736    0.0000 O   0  0
   11.9894  -18.1868    0.0000 O   0  0
   15.2576  -19.1169    0.0000 C   0  0  2  0  0  0
   16.0826  -19.1194    0.0000 C   0  0
   15.6722  -18.4037    0.0000 C   0  0
   13.8335  -19.1169    0.0000 N   0  0
   13.8335  -19.9420    0.0000 C   0  0  1  0  0  0
   14.5456  -20.3503    0.0000 C   0  0  2  0  0  0
   15.2576  -19.9420    0.0000 C   0  0
   14.5456  -18.7003    0.0000 C   0  0
   16.4972  -18.4061    0.0000 C   0  0
   16.9118  -17.6928    0.0000 O   0  0
   16.9076  -19.1218    0.0000 O   0  0
   14.5456  -21.1753    0.0000 C   0  0
   13.1197  -20.3555    0.0000 C   0  0
   14.5456  -17.8753    0.0000 O   0  0
   11.6918  -20.3557    0.0000 C   0  0
   11.6926  -21.1815    0.0000 C   0  0
   12.4127  -21.5928    0.0000 C   0  0
   13.1231  -21.1777    0.0000 C   0  0
   13.8290  -21.5863    0.0000 C   0  0
   13.8287  -22.4107    0.0000 C   0  0
   14.5437  -22.8240    0.0000 C   0  0
   15.2606  -22.4070    0.0000 C   0  0
   15.2573  -21.5841    0.0000 C   0  0
   10.9793  -21.5960    0.0000 Cl  0  0
   15.9765  -22.8170    0.0000 Cl  0  0
   13.1179  -18.7065    0.0000 C   0  0  2  0  0  0
   13.1154  -17.8815    0.0000 C   0  0
   12.4046  -19.1212    0.0000 C   0  0
   12.3919  -16.6461    0.0000 C   0  0
   12.4070  -19.9462    0.0000 C   0  0
   11.6889  -18.7108    0.0000 C   0  0
   13.1023  -16.2267    0.0000 C   0  0
   11.6735  -16.2405    0.0000 C   0  0
   12.3877  -15.8211    0.0000 C   0  0
  2  1  2  0
  1  3  2  0
  5  4  1  0
  4  6  1  1
  7  8  1  0
  7 11  1  0
  8  9  1  0
  9 10  1  0
 10  4  1  0
  4 11  1  0
  6 12  1  0
 12 13  2  0
 12 14  1  0
  9 15  1  6
  8 16  1  1
 11 17  2  0
 16 33  2  0
 33 18  1  0
 18 19  2  0
 19 20  1  0
 20 21  2  0
 21 16  1  0
 15 22  2  0
 22 23  1  0
 23 24  2  0
 24 25  1  0
 25 26  2  0
 26 15  1  0
 19 27  1  0
 25 28  1  0
  7 29  1  0
 29 30  1  0
 29 31  1  1
 30  1  1  0
  1 32  1  0
 31 34  1  0
 32 35  1  0
 32 36  1  0
 32 37  1  0
M  END