
          11280715342D 1   1.00000     0.00000     0

 13 14  0     0  0            999 V2000
    0.7125    1.1875    0.0000 C   0  0  0  0  0  0           0  0  0
    0.1917    0.8833    0.0000 C   0  0  0  0  0  0           0  0  0
   -0.3250    1.1833    0.0000 C   0  0  0  0  0  0           0  0  0
   -0.8458    0.8750    0.0000 C   0  0  0  0  0  0           0  0  0
    0.7042    1.7875    0.0000 O   0  0  0  0  0  0           0  0  0
    0.2000    0.2833    0.0000 C   0  0  0  0  0  0           0  0  0
   -0.8458    0.2750    0.0000 C   0  0  0  0  0  0           0  0  0
   -0.3208   -0.0250    0.0000 C   0  0  0  0  0  0           0  0  0
    1.2375    0.8958    0.0000 N   0  0  0  0  0  0           0  0  0
   -1.3625    1.1750    0.0000 C   0  0  0  0  0  0           0  0  0
   -1.3625   -0.0292    0.0000 C   0  0  0  0  0  0           0  0  0
   -1.8833    0.8750    0.0000 C   0  0  0  0  0  0           0  0  0
   -1.8833    0.2708    0.0000 C   0  0  0  0  0  0           0  0  0
  2  1  1  0     0  0
  3  2  2  0     0  0
  4  3  1  0     0  0
  5  1  2  0     0  0
  6  2  1  0     0  0
  7  8  1  0     0  0
  8  6  2  0     0  0
  9  1  1  0     0  0
 10  4  2  0     0  0
 11  7  2  0     0  0
 12 10  1  0     0  0
 13 11  1  0     0  0
  4  7  1  0     0  0
 12 13  2  0     0  0
M  END