
  SciTegic12201612072D

 35 40  0  0  0  0            999 V2000
    0.0000   -1.0300    0.0000 C   0  0
   -1.2400   -1.9400    0.0000 C   0  0
   -0.7700   -3.4000    0.0000 O   0  0
    0.7700   -3.4000    0.0000 C   0  0
    1.2400   -1.9400    0.0000 N   0  0
   -4.0000   -0.2500    0.0000 C   0  0
   -4.0000    1.2700    0.0000 C   0  0
   -2.6600    2.0400    0.0000 C   0  0
   -2.6600   -1.0300    0.0000 C   0  0
   -1.3300   -0.2500    0.0000 C   0  0
   -1.3300    1.2700    0.0000 C   0  0
    0.0000    2.0400    0.0000 O   0  0
    1.3300   -0.2500    0.0000 C   0  0
    1.3300    1.2700    0.0000 C   0  0
    2.6600    2.0400    0.0000 C   0  0
    4.0000    1.2700    0.0000 C   0  0
    4.0000   -0.2500    0.0000 C   0  0
    2.6600   -1.0300    0.0000 C   0  0
    5.3010   -0.9981    0.0000 C   0  0
    5.3043   -2.4982    0.0000 C   0  0
    6.6049   -3.2455    0.0000 O   0  0
    7.9024   -2.4928    0.0000 C   0  0
    7.8992   -0.9928    0.0000 C   0  0
    6.5986   -0.2455    0.0000 C   0  0
   -5.3033   -0.9936    0.0000 N   0  0
   -5.3121   -2.4944    0.0000 C   0  0
   -6.6158   -3.2380    0.0000 C   0  0
   -4.2762   -3.1002    0.0000 O   0  0
   -6.6267   -4.7380    0.0000 N   0  0
   -7.9312   -5.4786    0.0000 C   0  0
   -9.2247   -4.7192    0.0000 C   0  0
   -9.2139   -3.2192    0.0000 C   0  0
   -7.9094   -2.4787    0.0000 C   0  0
  -10.2683   -5.3116    0.0000 Cl  0  0
    1.4767   -4.3699    0.0000 N   0  0
  1  2  1  0
  2  3  1  0
  3  4  1  0
  4  5  2  0
  5  1  1  0
  6  7  2  0
  7  8  1  0
  8 11  2  0
 10  9  2  0
  9  6  1  0
 10 11  1  0
 10  1  1  0
 11 12  1  0
 12 14  1  0
 13  1  1  0
 13 14  2  0
 14 15  1  0
 15 16  2  0
 16 17  1  0
 17 18  2  0
 18 13  1  0
 19 20  1  0
 19 24  2  0
 20 21  1  0
 21 22  1  0
 22 23  1  0
 23 24  1  0
 17 19  1  0
  6 25  1  0
 25 26  1  0
 26 27  1  0
 26 28  2  0
 27 29  2  0
 29 30  1  0
 30 31  2  0
 31 32  1  0
 32 33  2  0
 33 27  1  0
 31 34  1  0
  4 35  1  0
M  END