
  Mrv0541 09061316392D          

 23 24  0  0  0  0            999 V2000
   12.3875  -12.1667    0.0000 O   0  0  0  0  0  0  0  0  0  0  0  0
   11.6667  -11.7542    0.0000 C   0  0  0  0  0  0  0  0  0  0  0  0
   13.1000  -11.7500    0.0000 C   0  0  0  0  0  0  0  0  0  0  0  0
   10.9542  -12.1667    0.0000 C   0  0  0  0  0  0  0  0  0  0  0  0
   13.1000  -10.9250    0.0000 C   0  0  0  0  0  0  0  0  0  0  0  0
   13.8167  -12.1625    0.0000 C   0  0  0  0  0  0  0  0  0  0  0  0
   15.2417  -12.1625    0.0000 N   0  0  0  0  0  0  0  0  0  0  0  0
   10.9542  -12.9917    0.0000 O   0  0  0  0  0  0  0  0  0  0  0  0
   11.6667  -10.9250    0.0000 C   0  0  0  0  0  0  0  0  0  0  0  0
   14.5292  -11.7500    0.0000 C   0  0  0  0  0  0  0  0  0  0  0  0
   10.2417  -11.7542    0.0000 C   0  0  0  0  0  0  0  0  0  0  0  0
   13.8125  -10.5167    0.0000 C   0  0  0  0  0  0  0  0  0  0  0  0
   12.3875  -10.5250    0.0000 C   0  0  0  0  0  0  0  0  0  0  0  0
   15.9542  -11.7417    0.0000 C   0  0  0  0  0  0  0  0  0  0  0  0
   10.2417  -13.4042    0.0000 C   0  0  0  0  0  0  0  0  0  0  0  0
   10.9542  -10.5125    0.0000 C   0  0  0  0  0  0  0  0  0  0  0  0
   13.8125   -9.6917    0.0000 C   0  0  0  0  0  0  0  0  0  0  0  0
   12.3792   -9.7000    0.0000 C   0  0  0  0  0  0  0  0  0  0  0  0
   10.2417  -10.9250    0.0000 C   0  0  0  0  0  0  0  0  0  0  0  0
   13.0917   -9.2792    0.0000 C   0  0  0  0  0  0  0  0  0  0  0  0
   16.6727  -12.1471    0.0000 H   0  0  0  0  0  0  0  0  0  0  0  0
   15.9461  -10.9167    0.0000 H   0  0  0  0  0  0  0  0  0  0  0  0
   16.6646  -11.3222    0.0000 H   0  0  0  0  0  0  0  0  0  0  0  0
  2  1  1  0  0  0  0
  3  1  1  0  0  0  0
  4  2  2  0  0  0  0
  5  3  1  0  0  0  0
  6  3  1  0  0  0  0
  7 10  1  0  0  0  0
  8  4  1  0  0  0  0
  9  2  1  0  0  0  0
 10  6  1  0  0  0  0
 11  4  1  0  0  0  0
 12  5  2  0  0  0  0
 13  5  1  0  0  0  0
 14  7  1  0  0  0  0
 15  8  1  0  0  0  0
 16  9  2  0  0  0  0
 17 12  1  0  0  0  0
 18 13  2  0  0  0  0
 19 16  1  0  0  0  0
 20 18  1  0  0  0  0
 19 11  2  0  0  0  0
 17 20  2  0  0  0  0
 14 21  1  0  0  0  0
 14 22  1  0  0  0  0
 14 23  1  0  0  0  0
M  ISO  3  21   3  22   3  23   3
M  END