
          11280715122D 1   1.00000     0.00000     0

 32 35  0     0  0            999 V2000
    7.4250   -5.9917    0.0000 C   0  0  0  0  0  0           0  0  0
    6.8917   -7.2250    0.0000 N   0  0  0  0  0  0           0  0  0
    7.6042   -6.8042    0.0000 N   0  0  0  0  0  0           0  0  0
    6.2792   -6.6917    0.0000 N   0  0  0  0  0  0           0  0  0
    6.6042   -5.9167    0.0000 N   0  0  0  0  0  0           0  0  0
    7.9750   -5.3792    0.0000 C   0  0  0  0  0  0           0  0  0
    2.9875   -0.8417    0.0000 C   0  0  0  0  0  0           0  0  0
    3.7000   -2.0792    0.0000 N   0  0  0  0  0  0           0  0  0
    4.4167   -1.6667    0.0000 C   0  0  0  0  0  0           0  0  0
    7.9750   -4.5542    0.0000 C   0  0  0  0  0  0           0  0  0
    2.2750   -0.4292    0.0000 C   0  0  0  0  0  0           0  0  0
    5.1292   -2.0792    0.0000 N   0  0  3  0  0  0           0  0  0
    2.9875   -1.6667    0.0000 C   0  0  0  0  0  0           0  0  0
    7.2667   -4.1417    0.0000 C   0  0  0  0  0  0           0  0  0
    5.1250   -2.9042    0.0000 C   0  0  0  0  0  0           0  0  0
    3.7000   -0.4250    0.0000 C   0  0  0  0  0  0           0  0  0
    1.5625   -0.8417    0.0000 O   0  0  0  0  0  0           0  0  0
    4.4167   -0.8375    0.0000 C   0  0  0  0  0  0           0  0  0
    7.2625   -3.3125    0.0000 C   0  0  0  0  0  0           0  0  0
    6.5500   -4.5542    0.0000 C   0  0  0  0  0  0           0  0  0
    5.8417   -3.3167    0.0000 C   0  0  0  0  0  0           0  0  0
    2.2750    0.3958    0.0000 O   0  0  0  0  0  0           0  0  0
    6.5417   -2.9000    0.0000 C   0  0  0  0  0  0           0  0  0
    5.8375   -4.1417    0.0000 C   0  0  0  0  0  0           0  0  0
    8.6875   -5.7917    0.0000 C   0  0  0  0  0  0           0  0  0
    8.6875   -4.1417    0.0000 C   0  0  0  0  0  0           0  0  0
    5.8375   -1.6667    0.0000 C   0  0  0  0  0  0           0  0  0
    6.5417   -2.0792    0.0000 C   0  0  0  0  0  0           0  0  0
    7.2542   -1.6667    0.0000 C   0  0  0  0  0  0           0  0  0
    9.4042   -5.3792    0.0000 C   0  0  0  0  0  0           0  0  0
    9.4000   -4.5500    0.0000 C   0  0  0  0  0  0           0  0  0
    7.9667   -2.0792    0.0000 C   0  0  0  0  0  0           0  0  0
  2  3  2  0     0  0
  3  1  1  0     0  0
  4  5  1  0     0  0
  5  1  2  0     0  0
  6  1  1  0     0  0
  7 16  1  0     0  0
  8  9  2  0     0  0
  9 12  1  0     0  0
 10  6  2  0     0  0
 11  7  1  0     0  0
 12 15  1  0     0  0
 13  8  1  0     0  0
 14 10  1  0     0  0
 15 21  1  0     0  0
 16 18  2  0     0  0
 17 11  2  0     0  0
 18  9  1  0     0  0
 19 14  2  0     0  0
 20 14  1  0     0  0
 21 24  1  0     0  0
 22 11  1  0     0  0
 23 19  1  0     0  0
 24 20  2  0     0  0
 25  6  1  0     0  0
 26 10  1  0     0  0
 27 12  1  0     0  0
 28 27  1  0     0  0
 29 28  1  0     0  0
 30 25  2  0     0  0
 31 30  1  0     0  0
 32 29  1  0     0  0
  4  2  1  0     0  0
 31 26  2  0     0  0
 23 21  2  0     0  0
  7 13  2  0     0  0
M  END