
          11280715352D 1   1.00000     0.00000     0

 35 38  0     1  0            999 V2000
    4.5417   -5.2250    0.0000 C   0  0  0  0  0  0           0  0  0
    4.5542   -4.0500    0.0000 C   0  0  1  0  0  0           0  0  0
    5.0542   -4.3500    0.0000 C   0  0  2  0  0  0           0  0  0
    4.0417   -4.3375    0.0000 C   0  0  0  0  0  0           0  0  0
    5.5667   -4.0625    0.0000 N   0  0  3  0  0  0           0  0  0
    4.0417   -4.9250    0.0000 C   0  0  0  0  0  0           0  0  0
    5.0542   -4.9292    0.0000 C   0  0  0  0  0  0           0  0  0
    4.5417   -5.8125    0.0000 C   0  0  0  0  0  0           0  0  0
    3.5292   -5.7917    0.0000 N   0  0  0  0  0  0           0  0  0
    6.1042   -2.5917    0.0000 C   0  0  0  0  0  0           0  0  0
    3.5417   -5.2125    0.0000 C   0  0  0  0  0  0           0  0  0
    5.5792   -3.4750    0.0000 C   0  0  0  0  0  0           0  0  0
    4.5542   -3.4542    0.0000 C   0  0  0  0  0  0           0  0  0
    7.2417   -5.3875    0.0000 C   0  0  0  0  0  0           0  0  0
    8.4417   -5.3917    0.0000 C   0  0  0  0  0  0           0  0  0
    7.5417   -4.8750    0.0000 C   0  0  0  0  0  0           0  0  0
    8.1417   -4.8750    0.0000 C   0  0  0  0  0  0           0  0  0
    5.0667   -3.1667    0.0000 C   0  0  1  0  0  0           0  0  0
    5.5917   -2.2875    0.0000 O   0  0  0  0  0  0           0  0  0
    6.0917   -3.1875    0.0000 O   0  0  0  0  0  0           0  0  0
    9.0417   -5.3917    0.0000 O   0  0  0  0  0  0           0  0  0
    7.5417   -5.9125    0.0000 O   0  0  0  0  0  0           0  0  0
    6.6167   -2.3042    0.0000 C   0  0  3  0  0  0           0  0  0
    5.0792   -2.5750    0.0000 C   0  0  0  0  0  0           0  0  0
    3.5292   -4.0375    0.0000 C   0  0  0  0  0  0           0  0  0
    6.0792   -4.3625    0.0000 C   0  0  0  0  0  0           0  0  0
    8.1417   -5.9125    0.0000 O   0  0  0  0  0  0           0  0  0
    6.6417   -5.3875    0.0000 O   0  0  0  0  0  0           0  0  0
    3.0292   -4.3375    0.0000 C   0  0  0  0  0  0           0  0  0
    3.0292   -4.9250    0.0000 C   0  0  0  0  0  0           0  0  0
    7.3417   -1.9042    0.0000 C   0  0  0  0  0  0           0  0  0
    7.1792   -2.4750    0.0000 C   0  0  0  0  0  0           0  0  0
    6.7792   -1.7417    0.0000 C   0  0  0  0  0  0           0  0  0
    5.5667   -4.6375    0.0000 H   0  0  0  0  0  0           0  0  0
    3.8292   -3.5000    0.0000 H   0  0  0  0  0  0           0  0  0
  2  3  1  0     0  0
  3  7  1  0     0  0
  4  6  2  0     0  0
  5  3  1  0     0  0
  6  1  1  0     0  0
  7  1  1  0     0  0
  8  1  2  0     0  0
  9  8  1  0     0  0
 10 19  1  0     0  0
 11  6  1  0     0  0
 12  5  1  0     0  0
 13  2  1  0     0  0
 15 17  1  0     0  0
 16 14  1  0     0  0
 17 16  2  0     0  0
 18 12  1  0     0  0
 19 24  1  0     0  0
 20 10  2  0     0  0
 21 15  2  0     0  0
 22 14  2  0     0  0
 23 10  1  0     0  0
 18 24  1  1     0  0
 25  4  1  0     0  0
 26  5  1  0     0  0
 27 15  1  0     0  0
 28 14  1  0     0  0
 29 30  1  0     0  0
 30 11  2  0     0  0
 31 33  1  0     0  0
 32 23  1  0     0  0
 33 23  1  0     0  0
  3 34  1  1     0  0
  2 35  1  6     0  0
  9 11  1  0     0  0
  2  4  1  0     0  0
 29 25  2  0     0  0
 18 13  1  0     0  0
 31 32  1  0     0  0
M  END