
  SciTegic01161211242D

 22 23  0  0  0  0            999 V2000
   -4.4891    1.9375    0.0000 C   0  0
   -4.7058    1.1416    0.0000 C   0  0
   -4.0159    0.6895    0.0000 S   0  0
   -3.3726    1.2060    0.0000 C   0  0
   -3.6652    1.9773    0.0000 C   0  0
   -2.5772    0.9887    0.0000 N   0  0
   -2.5859    0.1636    0.0000 C   0  0
   -1.8759   -0.2564    0.0000 C   0  0
   -3.3048   -0.2413    0.0000 O   0  0
   -0.3628    1.2174    0.0000 N   0  0
   -1.1483    0.9736    0.0000 C   0  0
   -1.1580    0.1505    0.0000 C   0  0
   -0.3776   -0.1117    0.0000 S   0  0
    0.1118    0.5502    0.0000 C   0  0
    0.9369    0.5424    0.0000 N   0  0
   -1.8097    1.4669    0.0000 O   0  0
   -5.0058    2.5807    0.0000 C   0  0
   -5.4773    0.8490    0.0000 C   0  0
   -3.2129    2.6676    0.0000 C   0  0
   -2.3879    2.6610    0.0000 O   0  0
   -3.5847    3.4043    0.0000 O   0  0
   -4.4097    3.3913    0.0000 C   0  0
  5  1  1  0
  1  2  2  0
  4  6  1  0
 10 11  1  0
 12 13  1  0
 13 14  1  0
 14 10  1  0
  6  7  1  0
 14 15  2  0
  2  3  1  0
 11 16  2  0
  7  8  1  0
  1 17  1  0
  3  4  1  0
  2 18  1  0
  7  9  2  0
  5 19  1  0
  8 12  1  0
 19 20  2  0
 11 12  1  0
 19 21  1  0
  4  5  2  0
 21 22  1  0
M  END