
  SciTegic05071317012D

 28 29  0  0  0  0            999 V2000
    4.5496   -9.9539    0.0000 C   0  0  1  0  0  0
    4.9669  -10.6656    0.0000 O   0  0
    5.7877  -10.6577    0.0000 C   0  0
    6.1954   -9.9454    0.0000 C   0  0  1  0  0  0
    5.7782   -9.2337    0.0000 C   0  0
    4.9532   -9.2344    0.0000 O   0  0
    7.0203   -9.9411    0.0000 N   0  0
    7.4365  -10.6535    0.0000 C   0  0
    7.4292   -9.2246    0.0000 C   0  0
    3.7246   -9.9617    0.0000 C   0  0
    3.3054   -9.2512    0.0000 C   0  0
    3.3190  -10.6801    0.0000 C   0  0
    3.7144   -8.5350    0.0000 C   0  0
    3.2958   -7.8250    0.0000 C   0  0
    2.4700   -7.8325    0.0000 C   0  0
    2.0645   -8.5558    0.0000 C   0  0
    2.4854   -9.2629    0.0000 C   0  0
    2.4940  -10.6829    0.0000 C   0  0
    2.0884  -11.4003    0.0000 C   0  0
    2.5077  -12.1119    0.0000 C   0  0
    3.3370  -12.1013    0.0000 C   0  0
    3.7388  -11.3832    0.0000 C   0  0
    6.8324  -12.5118    0.0000 C   0  0
    6.4199  -13.2252    0.0000 C   0  0
    6.4199  -11.7983    0.0000 O   0  0
    7.6574  -12.5118    0.0000 O   0  0
    6.8324  -13.9428    0.0000 O   0  0
    5.5949  -13.2252    0.0000 O   0  0
  1  2  1  0
  1  6  1  0
  2  3  1  0
  3  4  1  0
  4  5  1  0
  5  6  1  0
  4  7  1  1
  7  8  1  0
  7  9  1  0
  1 10  1  6
 10 11  1  0
 10 12  1  0
 11 13  2  0
 13 14  1  0
 14 15  2  0
 15 16  1  0
 16 17  2  0
 17 11  1  0
 12 18  2  0
 18 19  1  0
 19 20  2  0
 20 21  1  0
 21 22  2  0
 22 12  1  0
 23 24  1  0
 23 25  2  0
 23 26  1  0
 24 27  2  0
 24 28  1  0
M  END