
  SciTegic12231509382D

 33 36  0  0  0  0            999 V2000
    8.2500    0.6750    0.0000 N   0  0
    2.5250   -0.2000    0.0000 C   0  0
    8.9625    1.0958    0.0000 C   0  0
    6.8167   -0.1542    0.0000 N   0  0
    1.8167   -0.6167    0.0000 C   0  0
    0.4000   -1.4542    0.0000 C   0  0
    8.2542   -0.1542    0.0000 C   0  0
    7.5250    1.0875    0.0000 C   0  0
    2.5167    0.6250    0.0000 O   0  0
    9.6792    0.6833    0.0000 C   0  0
    1.8292   -1.4417    0.0000 C   0  0
    1.1000   -0.2125    0.0000 C   0  0
    1.1250   -1.8625    0.0000 C   0  0
    0.3917   -0.6292    0.0000 C   0  0
    3.2417   -0.6042    0.0000 N   0  0
   -0.3083   -1.8792    0.0000 C   0  0
    7.5417   -0.5667    0.0000 C   0  0
    6.8042    0.6625    0.0000 C   0  0
    9.6875   -0.1417    0.0000 O   0  0
    6.1000   -0.5792    0.0000 C   0  0
    8.9542    1.9208    0.0000 C   0  0
   10.3917    1.1083    0.0000 C   0  0
    3.9542   -0.1875    0.0000 C   0  0
   -1.0333   -1.4667    0.0000 C   0  0
   -0.2958   -2.7000    0.0000 C   0  0
   10.4042   -0.5500    0.0000 C   0  0
    5.3792   -0.1750    0.0000 C   0  0
    4.6667   -0.5917    0.0000 C   0  0
    9.6667    2.3458    0.0000 C   0  0
   -1.7375   -1.8917    0.0000 C   0  0
   -1.0083   -3.1167    0.0000 C   0  0
   10.3917    1.9333    0.0000 C   0  0
   -1.7333   -2.7167    0.0000 C   0  0
  2 15  1  0
  3  1  1  0
  4 17  1  0
  5  2  1  0
  6 14  2  0
  7  1  1  0
  8  1  1  0
  9  2  2  0
 10  3  2  0
 11  5  1  0
 12  5  2  0
 13 11  2  0
 14 12  1  0
 15 23  1  0
 16  6  1  0
 17  7  1  0
 18  8  1  0
 19 10  1  0
 20  4  1  0
 21  3  1  0
 22 10  1  0
 23 28  1  0
 24 16  2  0
 25 16  1  0
 26 19  1  0
 27 20  1  0
 28 27  1  0
 29 21  2  0
 30 24  1  0
 31 25  2  0
 32 29  1  0
 33 31  1  0
 18  4  1  0
 22 32  2  0
 13  6  1  0
 30 33  2  0
M  END