
  SciTegic05071317012D

 28 29  0  0  0  0            999 V2000
   22.7310   -3.4918    0.0000 C   0  0  2  0  0  0
   23.1483   -4.2035    0.0000 O   0  0
   23.9691   -4.1957    0.0000 C   0  0
   24.3769   -3.4833    0.0000 C   0  0  1  0  0  0
   23.9596   -2.7715    0.0000 C   0  0
   23.1345   -2.7721    0.0000 O   0  0
   25.2019   -3.4790    0.0000 N   0  0
   25.6182   -4.1914    0.0000 C   0  0
   25.6108   -2.7623    0.0000 C   0  0
   21.9059   -3.4997    0.0000 C   0  0
   21.4866   -2.7891    0.0000 C   0  0
   21.5002   -4.2180    0.0000 C   0  0
   21.8956   -2.0727    0.0000 C   0  0
   21.4770   -1.3627    0.0000 C   0  0
   20.6511   -1.3701    0.0000 C   0  0
   20.2456   -2.0936    0.0000 C   0  0
   20.6665   -2.8007    0.0000 C   0  0
   20.6751   -4.2208    0.0000 C   0  0
   20.2694   -4.9384    0.0000 C   0  0
   20.6889   -5.6500    0.0000 C   0  0
   21.5182   -5.6394    0.0000 C   0  0
   21.9200   -4.9212    0.0000 C   0  0
   28.6310   -2.7080    0.0000 C   0  0
   28.2184   -3.4214    0.0000 C   0  0
   28.2184   -1.9945    0.0000 O   0  0
   29.4561   -2.7080    0.0000 O   0  0
   28.6310   -4.1391    0.0000 O   0  0
   27.3933   -3.4214    0.0000 O   0  0
  1  2  1  0
  1  6  1  0
  2  3  1  0
  3  4  1  0
  4  5  1  0
  5  6  1  0
  4  7  1  1
  7  8  1  0
  7  9  1  0
  1 10  1  1
 10 11  1  0
 10 12  1  0
 11 13  2  0
 13 14  1  0
 14 15  2  0
 15 16  1  0
 16 17  2  0
 17 11  1  0
 12 18  2  0
 18 19  1  0
 19 20  2  0
 20 21  1  0
 21 22  2  0
 22 12  1  0
 23 24  1  0
 23 25  2  0
 23 26  1  0
 24 27  2  0
 24 28  1  0
M  END