
  SciTegic01161211222D

 28 30  0  0  0  0            999 V2000
   -4.9710   -8.2970    0.0000 C   0  0
   -4.9721   -9.1242    0.0000 C   0  0
   -4.2577   -9.5371    0.0000 C   0  0
   -4.2594   -7.8843    0.0000 C   0  0
   -3.5445   -8.2936    0.0000 C   0  0
   -3.5414   -9.1264    0.0000 C   0  0
   -2.8225   -9.5376    0.0000 O   0  0
   -2.1023   -9.1208    0.0000 C   0  0
   -2.1055   -8.2880    0.0000 C   0  0  1  0  0  0
   -2.8290   -7.8721    0.0000 O   0  0
   -1.3922   -7.8734    0.0000 C   0  0
   -0.6766   -8.2839    0.0000 N   0  0
    0.0367   -7.8693    0.0000 C   0  0
    0.7524   -8.2798    0.0000 C   0  0
    1.4657   -7.8652    0.0000 O   0  0
    2.1814   -8.2757    0.0000 C   0  0
    2.1787   -9.0997    0.0000 C   0  0
    2.8936   -9.5101    0.0000 C   0  0
    3.6079   -9.0954    0.0000 C   0  0
    1.4641   -9.5119    0.0000 O   0  0
    1.4638  -10.3369    0.0000 C   0  0
    2.8875   -7.8595    0.0000 C   0  0
    3.6002   -8.2665    0.0000 C   0  0
    4.3070   -7.8530    0.0000 C   0  0
    4.3024   -7.0324    0.0000 C   0  0
    3.5849   -6.6272    0.0000 C   0  0
    2.8810   -7.0431    0.0000 C   0  0
   -0.8250   -7.4370    0.0000 Cl  0  0
 12 13  1  0
 13 14  1  0
  2  3  1  0
 14 15  1  0
  3  6  2  0
 15 16  1  0
 16 17  2  0
  5  4  2  0
 17 18  1  0
  5 10  1  0
 18 19  2  0
 19 23  1  0
 22 16  1  0
  6  7  1  0
 17 20  1  0
  7  8  1  0
 20 21  1  0
  8  9  1  0
  9 10  1  0
 22 23  1  0
  4  1  1  0
 23 24  2  0
  9 11  1  1
 24 25  1  0
  5  6  1  0
 25 26  2  0
 11 12  1  0
 26 27  1  0
 27 22  2  0
  1  2  2  0
M  END