
          08180812492D 1   1.00000     0.00000     0

 18 16  0     1  0            999 V2000
    5.8768   -1.2228    0.0000 N   0  0  0  0  0  0           0  0  0
    6.5875   -0.8110    0.0000 C   0  0  0  0  0  0           0  0  0
    7.3024   -1.2228    0.0000 N   0  0  0  0  0  0           0  0  0
    6.5875    0.0125    0.0000 N   0  0  0  0  0  0           0  0  0
    5.8768    0.4242    0.0000 N   0  0  0  0  0  0           0  0  0
    8.0132   -0.8110    0.0000 C   0  0  0  0  0  0           0  0  0
    8.7281   -1.2228    0.0000 C   0  0  0  0  0  0           0  0  0
    9.4430   -0.8110    0.0000 C   0  0  0  0  0  0           0  0  0
   10.1537   -1.2228    0.0000 C   0  0  1  0  0  0           0  0  0
   10.8686   -0.8110    0.0000 C   0  0  0  0  0  0           0  0  0
   10.1537   -2.0463    0.0000 N   0  0  0  0  0  0           0  0  0
   11.5793   -1.2228    0.0000 O   0  0  0  0  0  0           0  0  0
   10.8686    0.0125    0.0000 O   0  0  0  0  0  0           0  0  0
    5.8768    1.2477    0.0000 C   0  0  0  0  0  0           0  0  0
    8.8756    0.6363    0.0000 C   0  0  0  0  0  0           0  0  0
    9.5946    1.0481    0.0000 C   0  0  0  0  0  0           0  0  0
   10.3095    0.6363    0.0000 O   0  0  0  0  0  0           0  0  0
    9.5946    1.8758    0.0000 O   0  0  0  0  0  0           0  0  0
  8  9  1  0     0  0
  1  2  1  0     0  0
  9 10  1  0     0  0
  4  5  1  0     0  0
  9 11  1  1     0  0
 10 12  1  0     0  0
  3  6  1  0     0  0
 10 13  2  0     0  0
  2  3  1  0     0  0
  5 14  1  0     0  0
  6  7  1  0     0  0
 15 16  1  0     0  0
  7  8  1  0     0  0
 16 17  1  0     0  0
  2  4  2  0     0  0
 16 18  2  0     0  0
M  END