
  SciTegic10031211142D

 20 22  0  0  0  0            999 V2000
    7.4196  -23.1222    0.0000 C   0  0
    7.0068  -23.8382    0.0000 C   0  0
    7.4204  -24.5514    0.0000 C   0  0
    8.2465  -24.5500    0.0000 C   0  0
    8.6574  -23.8294    0.0000 C   0  0
    8.2415  -23.1190    0.0000 C   0  0
    9.4857  -23.8245    0.0000 C   0  0
    9.9006  -24.5375    0.0000 C   0  0
   10.7209  -24.5348    0.0000 C   0  0
   11.1327  -23.8206    0.0000 N   0  0
   10.7178  -23.1075    0.0000 C   0  0
    9.8912  -23.1086    0.0000 C   0  0
   11.9548  -23.8243    0.0000 C   0  0
   12.3670  -24.5389    0.0000 C   0  0
   13.1896  -23.1120    0.0000 C   0  0
   12.3630  -23.1100    0.0000 C   0  0  1  0  0  0
   13.6019  -23.8267    0.0000 C   0  0
   13.1832  -24.5405    0.0000 C   0  0
   11.9503  -22.3967    0.0000 O   0  0
    8.6499  -22.4033    0.0000 I   0  0
  7 12  1  0
  8  9  1  0
  9 10  1  0
 10 11  1  0
 11 12  1  0
  5  7  1  0
 13 14  1  0
  6  1  1  0
  7  8  1  0
  1  2  2  0
  3  4  2  0
 13 16  1  0
 14 18  1  0
 17 15  1  0
 15 16  1  0
 10 13  1  0
 17 18  1  0
  4  5  1  0
  2  3  1  0
 16 19  1  6
  5  6  2  0
  6 20  1  0
M  ISO  1  20 125
M  END