
  SciTegic12211612432D

 17 18  0  0  0  0            999 V2000
   -2.3155    0.7475    0.0000 N   0  0
   -2.3155   -0.7475    0.0000 C   0  0
   -1.0028   -1.5132    0.0000 N   0  0
   -1.0028    1.5132    0.0000 C   0  0
    0.2917    0.7475    0.0000 C   0  0
    0.2917   -0.7475    0.0000 C   0  0
    1.7138   -1.2033    0.0000 N   0  0
    2.5889    0.0182    0.0000 C   0  0
    1.7138    1.2033    0.0000 N   0  0
   -0.9991    2.7132    0.0000 O   0  0
    4.0872    0.0382    0.0000 S   0  0
   -3.3560   -1.3452    0.0000 N   0  0
    4.8208    1.3475    0.0000 C   0  0
    6.3215    1.3677    0.0000 C   0  0
    6.9352    0.3365    0.0000 O   0  0
    7.0552    2.6770    0.0000 C   0  0
    8.2551    2.6932    0.0000 O   0  0
  1  2  1  0
  1  4  1  0
  2  3  2  0
  3  6  1  0
  5  4  1  0
  5  6  2  0
  6  7  1  0
  7  8  1  0
  8  9  2  0
  9  5  1  0
  4 10  2  0
  8 11  1  0
  2 12  1  0
 11 13  1  0
 13 14  1  0
 14 15  1  0
 14 16  1  0
 16 17  1  0
M  END