
  CDK    9/16/09,9:46

 21 23  0  0  0  0  0  0  0  0999 V2000
    4.6548  -22.5622    0.0000 C   0  0  0  0  0  0  0  0  0  0  0  0
    4.6534  -23.3896    0.0000 C   0  0  0  0  0  0  0  0  0  0  0  0
    5.3664  -23.8026    0.0000 C   0  0  0  0  0  0  0  0  0  0  0  0
    5.3644  -22.1494    0.0000 C   0  0  0  0  0  0  0  0  0  0  0  0
    6.0826  -22.5581    0.0000 C   0  0  0  0  0  0  0  0  0  0  0  0
    6.0817  -23.3871    0.0000 C   0  0  0  0  0  0  0  0  0  0  0  0
    7.5150  -22.5596    0.0000 C   0  0  0  0  0  0  0  0  0  0  0  0
    6.7970  -22.1421    0.0000 C   0  0  0  0  0  0  0  0  0  0  0  0
    7.5141  -23.3887    0.0000 N   0  0  0  0  0  0  0  0  0  0  0  0
    6.7940  -23.7971    0.0000 C   0  0  0  0  0  0  0  0  0  0  0  0
    8.2199  -24.6330    0.0000 C   0  0  0  0  0  0  0  0  0  0  0  0
    8.2280  -23.8034    0.0000 C   0  0  0  0  0  0  0  0  0  0  0  0
    7.4998  -25.0414    0.0000 C   0  0  0  0  0  0  0  0  0  0  0  0
    6.7911  -24.6190    0.0000 C   0  0  0  0  0  0  0  0  0  0  0  0
    6.0731  -25.0216    0.0000 C   0  0  0  0  0  0  0  0  0  0  0  0
    6.0626  -25.8463    0.0000 C   0  0  0  0  0  0  0  0  0  0  0  0
    6.7761  -26.2668    0.0000 C   0  0  0  0  0  0  0  0  0  0  0  0
    7.4911  -25.8619    0.0000 C   0  0  0  0  0  0  0  0  0  0  0  0
    8.2219  -22.9700    0.0000 C   0  0  0  0  0  0  0  0  0  0  0  0
    3.9400  -22.1503    0.0000 O   0  0  0  0  0  0  0  0  0  0  0  0
    8.2132  -22.1452    0.0000 C   0  0  0  0  0  0  0  0  0  0  0  0
  5  6  1  0  0  0  0 
  9 12  1  0  0  0  0 
 10 14  1  0  0  0  0 
 13 11  1  0  0  0  0 
 11 12  1  0  0  0  0 
  2  3  1  0  0  0  0 
  3  6  2  0  0  0  0 
 13 14  2  0  0  0  0 
  1  2  2  0  0  0  0 
 14 15  1  0  0  0  0 
  5  8  1  0  0  0  0 
 15 16  2  0  0  0  0 
  6 10  1  0  0  0  0 
 16 17  1  0  0  0  0 
  9  7  1  0  0  0  0 
 17 18  2  0  0  0  0 
 18 13  1  0  0  0  0 
  7  8  1  0  0  0  0 
  9 19  1  0  0  0  0 
  5  4  2  0  0  0  0 
  1 20  1  0  0  0  0 
  4  1  1  0  0  0  0 
 19 21  1  0  0  0  0 
M  END