
  SciTegic11141214522D

 21 21  0  0  0  0            999 V2000
    0.7144   -0.4125    0.0000 C   0  0  2  0  0  0
    1.4293   -0.8252    0.0000 C   0  0
    0.7144    0.4125    0.0000 C   0  0  2  0  0  0
    2.1402    2.8918    0.0000 N   0  0
    1.4285    0.8267    0.0000 O   0  0
    4.2346    1.0349    0.0000 Cl  0  0
    1.4273    1.6521    0.0000 C   0  0
    0.0000   -0.8250    0.0000 C   0  0
    2.1413    2.0663    0.0000 C   0  0
    1.4307   -1.6502    0.0000 C   0  0
    2.1432   -0.4116    0.0000 C   0  0
    2.8542    3.3060    0.0000 C   0  0
    1.4254    3.3048    0.0000 C   0  0
    0.0000    0.8250    0.0000 C   0  0
    1.4252    3.9648    0.0000 C   0  0
    2.8532    3.9660    0.0000 C   0  0
   -0.7144   -0.4125    0.0000 C   0  0
    2.8583   -0.8230    0.0000 C   0  0
    2.1458   -2.0616    0.0000 C   0  0
   -0.7144    0.4125    0.0000 C   0  0
    2.8596   -1.6480    0.0000 C   0  0
  1  2  1  1
  1  3  1  0
  3  5  1  1
  5  7  1  0
  1  8  1  0
  4  9  1  0
  7  9  1  0
  2 10  1  0
  2 11  2  0
  4 12  1  0
  4 13  1  0
  3 14  1  0
 13 15  1  0
 12 16  1  0
  8 17  1  0
 11 18  1  0
 10 19  2  0
 14 20  1  0
 17 20  1  0
 18 21  2  0
 19 21  1  0
M  END