
  SciTegic10301317112D

 29 29  0  0  0  0            999 V2000
    0.8167   -2.6250    0.0000 S   0  0
    9.6250   -4.5417    0.0000 C   0  0
    9.2167   -5.2542    0.0000 C   0  0  1  0  0  0
    4.1125   -2.6042    0.0000 C   0  0
    9.6292   -5.9667    0.0000 C   0  0
    8.3917   -5.2667    0.0000 N   0  0
    1.6417   -2.6167    0.0000 C   0  0
   10.4500   -4.5375    0.0000 C   0  0
    7.9042   -4.6000    0.0000 C   0  0
    4.5292   -3.3167    0.0000 N   0  0
    0.8167   -3.4417    0.0000 O   0  0
    0.8167   -1.8000    0.0000 O   0  0
    5.7667   -4.0250    0.0000 C   0  0
    3.2875   -2.6125    0.0000 C   0  0
   -0.0083   -2.6167    0.0000 N   0  0
    6.5917   -4.0167    0.0000 N   0  0
    4.5167   -1.8917    0.0000 O   0  0
    9.2250   -6.6875    0.0000 O   0  0
   10.8667   -5.2500    0.0000 O   0  0
    8.2375   -3.8417    0.0000 O   0  0
    5.3625   -4.7417    0.0000 O   0  0
    2.0417   -1.9042    0.0000 C   0  0
    2.0542   -3.3292    0.0000 C   0  0
    2.8792   -3.3292    0.0000 C   0  0
    2.8667   -1.9000    0.0000 C   0  0
    5.3542   -3.3125    0.0000 C   0  0
    7.0792   -4.6875    0.0000 C   0  0
   10.4542   -5.9667    0.0000 O   0  0
   10.8542   -3.8167    0.0000 O   0  0
  3  2  1  1
  3  6  1  0
  4 14  1  0
  5  3  1  0
  6  9  1  0
  7  1  1  0
  8  2  1  0
  9 27  1  0
 10  4  1  0
 11  1  2  0
 12  1  2  0
 13 26  1  0
 14 24  2  0
 15  1  1  0
 16 13  1  0
 17  4  2  0
 18  5  2  0
 19  8  2  0
 20  9  2  0
 21 13  2  0
 22  7  1  0
 23  7  2  0
 24 23  1  0
 25 22  2  0
 26 10  1  0
 27 16  1  0
 28  5  1  0
 29  8  1  0
 14 25  1  0
M  END