
          11280715492D 1   1.00000     0.00000     0

 24 26  0     0  0            999 V2000
    0.3780   -5.2813    0.0000 N   0  0  0  0  0  0           0  0  0
   -2.4750   -2.8083    0.0000 C   0  0  3  0  0  0           0  0  0
   -2.4750   -3.6333    0.0000 C   0  0  0  0  0  0           0  0  0
   -1.7630   -4.0417    0.0000 C   0  0  0  0  0  0           0  0  0
   -1.0510   -3.6333    0.0000 N   0  0  3  0  0  0           0  0  0
   -1.0510   -2.8083    0.0000 C   0  0  0  0  0  0           0  0  0
   -1.7630   -2.3917    0.0000 C   0  0  0  0  0  0           0  0  0
   -3.1907   -2.3979    0.0000 C   0  0  0  0  0  0           0  0  0
   -3.9039   -2.8125    0.0000 C   0  0  0  0  0  0           0  0  0
   -4.6583   -2.4793    0.0000 C   0  0  0  0  0  0           0  0  0
   -5.2086   -3.0940    0.0000 N   0  0  0  0  0  0           0  0  0
   -4.7939   -3.8073    0.0000 C   0  0  0  0  0  0           0  0  0
   -3.9875   -3.6333    0.0000 N   0  0  0  0  0  0           0  0  0
   -0.3371   -4.0469    0.0000 C   0  0  0  0  0  0           0  0  0
   -0.3383   -4.8719    0.0000 C   0  0  0  0  0  0           0  0  0
    1.0906   -4.8657    0.0000 C   0  0  0  0  0  0           0  0  0
    1.8069   -5.2750    0.0000 C   0  0  0  0  0  0           0  0  0
    1.0871   -4.0407    0.0000 O   0  0  0  0  0  0           0  0  0
    1.8091   -6.1011    0.0000 C   0  0  0  0  0  0           0  0  0
    2.5246   -6.5104    0.0000 C   0  0  0  0  0  0           0  0  0
    3.2382   -6.0947    0.0000 C   0  0  0  0  0  0           0  0  0
    3.2320   -5.2655    0.0000 C   0  0  0  0  0  0           0  0  0
    2.5160   -4.8599    0.0000 C   0  0  0  0  0  0           0  0  0
    3.9550   -6.5032    0.0000 Cl  0  0  0  0  0  0           0  0  0
 11 12  1  0     0  0
 12 13  2  0     0  0
 13  9  1  0     0  0
  6  7  1  0     0  0
  5 14  1  0     0  0
 14 15  1  0     0  0
 15  1  1  0     0  0
  2  8  1  0     0  0
  1 16  1  0     0  0
  2  3  1  0     0  0
 16 17  1  0     0  0
  8  9  1  0     0  0
 16 18  2  0     0  0
  9 10  2  0     0  0
 17 19  2  0     0  0
  2  7  1  0     0  0
 19 20  1  0     0  0
  3  4  1  0     0  0
 20 21  2  0     0  0
  4  5  1  0     0  0
 21 22  1  0     0  0
  5  6  1  0     0  0
 22 23  2  0     0  0
 23 17  1  0     0  0
 10 11  1  0     0  0
 21 24  1  0     0  0
M  END