
          11280715462D 1   1.00000     0.00000     0

 24 26  0     0  0            999 V2000
    6.3667   -1.3417    0.0000 N   0  0  3  0  0  0           0  0  0
    5.6542   -1.7542    0.0000 C   0  0  0  0  0  0           0  0  0
   11.3792   -0.0292    0.0000 C   0  0  0  0  0  0           0  0  0
   10.6750   -0.4500    0.0000 C   0  0  0  0  0  0           0  0  0
    5.6625   -2.5792    0.0000 C   0  0  0  0  0  0           0  0  0
    7.8000   -0.5042    0.0000 N   0  0  3  0  0  0           0  0  0
   12.1292   -0.3500    0.0000 O   0  0  0  0  0  0           0  0  0
    4.9375   -1.3500    0.0000 C   0  0  0  0  0  0           0  0  0
   11.4500    0.7875    0.0000 C   0  0  0  0  0  0           0  0  0
    4.9500   -3.0042    0.0000 C   0  0  0  0  0  0           0  0  0
    7.0792   -1.7417    0.0000 C   0  0  0  0  0  0           0  0  0
    6.3667   -0.5042    0.0000 C   0  0  0  0  0  0           0  0  0
   10.6917   -1.2792    0.0000 O   0  0  0  0  0  0           0  0  0
   12.6667    0.2708    0.0000 C   0  0  0  0  0  0           0  0  0
   12.2417    0.9708    0.0000 C   0  0  0  0  0  0           0  0  0
    9.9500   -0.0417    0.0000 N   0  0  0  0  0  0           0  0  0
    7.0792   -0.0875    0.0000 C   0  0  0  0  0  0           0  0  0
    7.8000   -1.3417    0.0000 C   0  0  0  0  0  0           0  0  0
    4.2167   -1.7667    0.0000 C   0  0  0  0  0  0           0  0  0
    4.2250   -2.5917    0.0000 C   0  0  0  0  0  0           0  0  0
    9.2375   -0.4750    0.0000 C   0  0  0  0  0  0           0  0  0
    8.5292   -0.0792    0.0000 C   0  0  0  0  0  0           0  0  0
    6.3792   -2.9917    0.0000 C   0  0  0  0  0  0           0  0  0
    3.5125   -3.0125    0.0000 C   0  0  0  0  0  0           0  0  0
  2  1  1  0     0  0
  3  4  1  0     0  0
  4 16  1  0     0  0
  5  2  1  0     0  0
  6 17  1  0     0  0
  7  3  1  0     0  0
  8  2  2  0     0  0
  9  3  2  0     0  0
 10  5  2  0     0  0
 11  1  1  0     0  0
 12  1  1  0     0  0
 13  4  2  0     0  0
 14  7  1  0     0  0
 15  9  1  0     0  0
 16 21  1  0     0  0
 17 12  1  0     0  0
 18 11  1  0     0  0
 19  8  1  0     0  0
 20 19  2  0     0  0
 21 22  1  0     0  0
 22  6  1  0     0  0
 23  5  1  0     0  0
 24 20  1  0     0  0
 18  6  1  0     0  0
 10 20  1  0     0  0
 15 14  2  0     0  0
M  END