
  SciTegic01161211222D

 25 27  0  0  0  0            999 V2000
   11.2833   -9.5542    0.0000 N   0  3
   11.2833   -8.7292    0.0000 C   0  0
   10.5667   -9.9625    0.0000 C   0  0
    9.8542   -9.5500    0.0000 C   0  0
   10.5667   -8.3083    0.0000 C   0  0
    9.8542   -8.7250    0.0000 C   0  0
   12.0042   -8.3167    0.0000 C   0  0
    9.1375   -8.3167    0.0000 C   0  0
   10.5708   -7.4833    0.0000 C   0  0
    9.1417   -9.9667    0.0000 C   0  0
   10.5625  -10.7875    0.0000 C   0  0
   11.9958   -9.9667    0.0000 C   0  0
   12.0042   -7.4875    0.0000 C   0  0
    8.4250   -9.5542    0.0000 C   0  0
   11.2833   -7.0708    0.0000 C   0  0
    8.4292   -8.7292    0.0000 C   0  0
   12.7208   -7.0750    0.0000 N   0  0
    7.7125   -9.9667    0.0000 N   0  0
    9.8458  -11.1958    0.0000 C   0  0
   11.2708  -11.1958    0.0000 C   0  0
   11.9958  -10.7917    0.0000 C   0  0
    9.8417  -12.0208    0.0000 C   0  0
   11.2750  -12.0208    0.0000 C   0  0
   10.5542  -12.4333    0.0000 C   0  0
   13.2292   -9.1000    0.0000 Br  0  5
  2  1  1  0
  3  1  2  0
  4  3  1  0
  5  2  2  0
  6  5  1  0
  7  2  1  0
  8  6  2  0
  9  5  1  0
 10  4  2  0
 11  3  1  0
 12  1  1  0
 13  7  2  0
 14 10  1  0
 15 13  1  0
 16  8  1  0
 17 13  1  0
 18 14  1  0
 19 11  2  0
 20 11  1  0
 21 12  1  0
 22 19  1  0
 23 20  2  0
 24 23  1  0
  4  6  1  0
  9 15  2  0
 14 16  2  0
 24 22  2  0
M  CHG  2   1   1  25  -1
M  END