
  SciTegic01181116592D

 18 20  0  0  0  0            999 V2000
    0.9800  -15.0057    0.0000 C   0  0
    1.7135  -14.6676    0.0000 N   0  0
    1.1286  -14.2593    0.0000 C   0  0
    2.5363  -15.0164    0.0000 C   0  0
    1.5765  -13.6464    0.0000 C   0  0
    1.8532  -13.9341    0.0000 C   0  0
    2.6401  -14.2768    0.0000 C   0  0  1  0  0  0
    1.8154  -13.0526    0.0000 C   0  0
    3.3607  -13.8734    0.0000 N   0  0
    4.0703  -14.2958    0.0000 C   0  0
    4.7909  -13.8924    0.0000 N   0  0
    4.0593  -15.1215    0.0000 O   0  0
    5.5005  -14.3148    0.0000 C   0  0
    5.4874  -15.1405    0.0000 C   0  0
    6.1961  -15.5627    0.0000 C   0  0
    6.9177  -15.1593    0.0000 C   0  0
    6.9260  -14.3293    0.0000 C   0  0
    6.2167  -13.9108    0.0000 C   0  0
  7  9  1  1
  1  2  1  0
  9 10  1  0
  1  3  1  0
 10 11  1  0
  2  4  1  0
 10 12  2  0
  2  5  1  0
 11 13  1  0
  3  6  1  0
 13 14  2  0
  4  7  1  0
 14 15  1  0
  5  8  1  0
 15 16  2  0
  6  7  1  0
 16 17  1  0
  6  8  1  0
 17 18  2  0
 18 13  1  0
M  END