
  SciTegic11081110012D

 29 31  0  0  0  0            999 V2000
    3.7111    0.3834    0.0000 C   0  0
    3.7099   -0.4440    0.0000 C   0  0
    4.4247   -0.8569    0.0000 C   0  0
    5.1412   -0.4435    0.0000 C   0  0
    5.1383    0.3870    0.0000 C   0  0
    4.4229    0.7961    0.0000 C   0  0
    2.9951   -0.8559    0.0000 S   0  0
    2.2810   -0.4429    0.0000 C   0  0
    2.5750   -1.5667    0.0000 O   0  0
    3.5750   -1.4375    0.0000 O   0  0
    5.8512    0.8022    0.0000 C   0  0  2  0  0  0
    6.5672    0.3924    0.0000 C   0  0
    7.2802    0.8076    0.0000 N   0  0
    6.5704   -0.4326    0.0000 O   0  0
    7.9959    0.3977    0.0000 C   0  0
    5.8481    1.6272    0.0000 C   0  0
    5.1320    2.0368    0.0000 C   0  0  2  0  0  0
    5.1117    2.8583    0.0000 C   0  0
    4.3199    3.0898    0.0000 C   0  0
    3.8549    2.4083    0.0000 C   0  0
    4.3595    1.7556    0.0000 C   0  0
    2.9965    0.7957    0.0000 Cl  0  0
    7.9960   -0.4258    0.0000 C   0  0
    8.7108   -0.8356    0.0000 N   0  0
    9.4246   -0.4206    0.0000 C   0  0
    9.4190    0.4084    0.0000 C   0  0
    8.7036    0.8144    0.0000 N   0  0
    4.0418    3.8666    0.0000 O   0  0
    5.8417    2.4542    0.0000 H   0  0
  2  7  1  0
 13 15  1  0
  3  4  2  0
 11 16  1  1
  7  8  1  0
 16 17  1  0
 17 18  1  0
  7  9  2  0
  4  5  1  0
  7 10  2  0
 18 19  1  0
 19 20  1  0
 20 21  1  0
 21 17  1  0
  2  3  1  0
  1 22  1  0
  5 11  1  0
 15 23  2  0
  5  6  2  0
 23 24  1  0
 11 12  1  0
 24 25  2  0
  6  1  1  0
 25 26  1  0
 12 13  1  0
 26 27  2  0
 27 15  1  0
  1  2  2  0
 19 28  2  0
 12 14  2  0
 17 29  1  6
M  END