
  SciTegic02271514512D

 40 43  0  0  0  0            999 V2000
   25.3934   -0.7305    0.0000 C   0  0
   25.3923   -1.5500    0.0000 C   0  0
   26.1003   -1.9590    0.0000 C   0  0
   26.8100   -1.5495    0.0000 C   0  0
   26.8072   -0.7269    0.0000 C   0  0
   26.0985   -0.3216    0.0000 C   0  0
   27.5133   -0.3156    0.0000 C   0  0
   28.2226   -0.7215    0.0000 N   0  0
   27.5102    0.5055    0.0000 O   0  0
   28.9287   -0.3103    0.0000 C   0  0
   29.6380   -0.7162    0.0000 C   0  0
   29.6380   -1.5323    0.0000 C   0  0
   30.3464   -1.9381    0.0000 C   0  0
   31.0535   -1.5268    0.0000 C   0  0
   31.0478   -0.7054    0.0000 C   0  0
   30.3388   -0.3033    0.0000 C   0  0
   31.7525   -0.2917    0.0000 C   0  0
   32.4632   -0.6951    0.0000 C   0  0  2  0  0  0
   33.1679   -0.2813    0.0000 C   0  0
   28.9309   -1.9420    0.0000 O   0  0
   28.9323   -2.7592    0.0000 C   0  0
   28.2253   -3.1690    0.0000 C   0  0
   28.2266   -3.9862    0.0000 C   0  0
   33.8791   -0.6843    0.0000 O   0  0
   33.1624    0.5368    0.0000 O   0  0
   32.4691   -1.5122    0.0000 C   0  0
   33.1798   -1.9157    0.0000 C   0  0
   33.1820   -2.7333    0.0000 C   0  0
   33.8918   -3.1366    0.0000 C   0  0
   34.5975   -2.7228    0.0000 C   0  0
   34.5889   -1.9015    0.0000 C   0  0
   33.8785   -1.5018    0.0000 C   0  0
   24.6842   -1.9581    0.0000 N   0  0
   24.7908   -2.7732    0.0000 C   0  0
   24.2941   -3.4195    0.0000 C   0  0
   24.0381   -1.4641    0.0000 C   0  0
   23.2259   -1.5704    0.0000 C   0  0
   22.7364   -2.2168    0.0000 C   0  0
   22.8364   -3.0291    0.0000 C   0  0
   23.4818   -3.5259    0.0000 C   0  0
  1  2  2  0
  2  3  1  0
  3  4  2  0
  4  5  1  0
  5  6  2  0
  6  1  1  0
  5  7  1  0
  7  8  1  0
  7  9  2  0
  8 10  1  0
 10 11  1  0
 11 12  2  0
 12 13  1  0
 13 14  2  0
 14 15  1  0
 15 16  2  0
 16 11  1  0
 15 17  1  0
 17 18  1  0
 18 19  1  0
 12 20  1  0
 20 21  1  0
 21 22  1  0
 22 23  1  0
 19 24  1  0
 19 25  2  0
 18 26  1  6
 26 27  1  0
 27 28  2  0
 28 29  1  0
 29 30  2  0
 30 31  1  0
 31 32  2  0
 32 27  1  0
  2 33  1  0
 33 34  1  0
 34 35  1  0
 33 36  1  0
 36 37  1  0
 37 38  1  0
 38 39  1  0
 39 40  1  0
 40 35  1  0
M  END