
  SciTegic01161211212D

 19 21  0  0  0  0            999 V2000
    7.9213  -22.3516    0.0000 C   0  0
    7.9202  -23.1766    0.0000 C   0  0
    8.6330  -23.5883    0.0000 C   0  0
    8.6312  -21.9401    0.0000 C   0  0
    9.3444  -22.3480    0.0000 C   0  0
    9.3478  -23.1741    0.0000 C   0  0
   10.0610  -23.5819    0.0000 C   0  0
   10.0542  -21.9297    0.0000 C   0  0
   10.7720  -22.3421    0.0000 C   0  0  2  0  0  0
   10.7778  -23.1700    0.0000 C   0  0  2  0  0  0
   11.5669  -23.4202    0.0000 C   0  0
   12.0489  -22.7470    0.0000 C   0  0
   11.5575  -22.0807    0.0000 N   0  0
   10.7645  -21.5166    0.0000 H   0  0
   10.7728  -23.9885    0.0000 H   0  0
   11.9478  -21.3576    0.0000 C   0  0
   12.7700  -21.3344    0.0000 C   0  0
   13.1611  -20.6106    0.0000 C   0  0
    8.6335  -24.4109    0.0000 O   0  0
  9 10  1  0
  5  4  2  0
  4  1  1  0
  5  6  1  0
  2  3  1  0
 10 11  1  0
 11 12  1  0
 12 13  1  0
 13  9  1  0
  3  6  2  0
  9 14  1  6
  1  2  2  0
 10 15  1  1
  5  8  1  0
 13 16  1  0
  6  7  1  0
 16 17  1  0
  7 10  1  0
 17 18  2  0
  9  8  1  0
  3 19  1  0
M  END