
  SciTegic01181116592D

 30 33  0  0  0  0            999 V2000
   -4.9306  -18.8750    0.0000 C   0  0
   -4.9318  -19.7023    0.0000 C   0  0
   -4.2169  -20.1152    0.0000 C   0  0
   -3.5005  -19.7019    0.0000 C   0  0
   -3.5034  -18.8713    0.0000 C   0  0
   -4.2187  -18.4622    0.0000 C   0  0
   -5.6466  -20.1143    0.0000 Cl  0  0
   -2.7904  -18.4561    0.0000 C   0  0
   -2.0744  -18.8659    0.0000 C   0  0
   -2.7936  -17.6311    0.0000 O   0  0
   -4.2171  -20.9402    0.0000 S   0  0
   -3.5028  -21.3529    0.0000 N   0  0
   -5.0208  -20.7208    0.0000 O   0  0
   -4.8083  -21.5208    0.0000 O   0  0
   -1.3614  -18.4506    0.0000 N   0  0
   -0.6166  -17.3476    0.0000 N   0  0
   -1.3919  -17.6291    0.0000 C   0  0
   -0.1090  -17.9979    0.0000 C   0  0
   -0.5717  -18.6800    0.0000 C   0  0
   -0.2122  -19.4197    0.0000 C   0  0
    0.6097  -19.4784    0.0000 C   0  0
    1.0708  -18.7915    0.0000 C   0  0
    0.7088  -18.0546    0.0000 C   0  0
   -2.1110  -17.2247    0.0000 C   0  0
   -2.1202  -16.3998    0.0000 N   0  0
   -1.4143  -15.9793    0.0000 C   0  0
   -1.4216  -15.1579    0.0000 C   0  0
   -2.1389  -14.7496    0.0000 O   0  0
   -2.8505  -15.1689    0.0000 C   0  0
   -2.8448  -15.9965    0.0000 C   0  0
  9 15  1  0
 15 19  1  0
  3  4  2  0
  5  8  1  0
 18 16  1  0
 16 17  2  0
 17 15  1  0
  8  9  1  0
 18 19  2  0
  4  5  1  0
 19 20  1  0
  8 10  2  0
 20 21  2  0
  2  3  1  0
 21 22  1  0
  3 11  1  0
 22 23  2  0
 23 18  1  0
  5  6  2  0
 17 24  1  0
 11 12  1  0
 24 25  1  0
 25 26  1  0
  6  1  1  0
 11 13  2  0
  1  2  2  0
 11 14  2  0
  2  7  1  0
 25 30  1  0
 26 27  1  0
 27 28  1  0
 28 29  1  0
 29 30  1  0
M  END