
          11280715452D 1   1.00000     0.00000     0

 21 21  0     1  0            999 V2000
    5.6667   -3.6917    0.0000 N   0  0  3  0  0  0           0  0  0
    4.9417   -4.1042    0.0000 C   0  0  0  0  0  0           0  0  0
    4.2292   -3.6917    0.0000 C   0  0  2  0  0  0           0  0  0
    4.9417   -1.6250    0.0000 P   0  0  3  0  0  0           0  0  0
    6.4625   -3.9000    0.0000 C   0  0  1  0  0  0           0  0  0
    4.2292   -2.8667    0.0000 C   0  0  2  0  0  0           0  0  0
    3.5167   -4.1042    0.0000 N   0  0  0  0  0  0           0  0  0
    5.8792   -2.8875    0.0000 C   0  0  0  0  0  0           0  0  0
    6.6750   -3.1000    0.0000 C   0  0  0  0  0  0           0  0  0
    6.8792   -4.6167    0.0000 C   0  0  0  0  0  0           0  0  0
    4.9417   -2.4542    0.0000 O   0  0  0  0  0  0           0  0  0
    2.8000   -3.6917    0.0000 C   0  0  0  0  0  0           0  0  0
    4.9417   -4.9375    0.0000 O   0  0  0  0  0  0           0  0  0
    4.1167   -1.6167    0.0000 O   0  0  0  0  0  0           0  0  0
    6.4667   -5.3375    0.0000 O   0  0  0  0  0  0           0  0  0
    2.8000   -2.8625    0.0000 O   0  0  0  0  0  0           0  0  0
    5.7667   -1.6167    0.0000 O   0  0  0  0  0  0           0  0  0
    4.9417   -0.7917    0.0000 O   0  0  0  0  0  0           0  0  0
    7.7042   -4.6167    0.0000 N   0  0  0  0  0  0           0  0  0
    3.5167   -2.4500    0.0000 C   0  0  0  0  0  0           0  0  0
    2.0875   -4.1042    0.0000 C   0  0  0  0  0  0           0  0  0
  2  1  1  0     0  0
  3  2  1  1     0  0
  4 11  1  0     0  0
  5  1  1  0     0  0
  6  3  1  0     0  0
  7  3  1  0     0  0
  8  1  1  0     0  0
  9  8  1  0     0  0
  5 10  1  1     0  0
  6 11  1  1     0  0
 12  7  1  0     0  0
 13  2  2  0     0  0
 14  4  2  0     0  0
 15 10  2  0     0  0
 16 12  2  0     0  0
 17  4  1  0     0  0
 18  4  1  0     0  0
 19 10  1  0     0  0
 20  6  1  0     0  0
 21 12  1  0     0  0
  9  5  1  0     0  0
M  END