
  SciTegic01161211252D

 31 34  0  0  0  0            999 V2000
    0.7167  -13.2375    0.0000 O   0  0
    0.0042  -13.6542    0.0000 S   0  0
    0.7213  -14.0629    0.0000 O   0  0
   -0.7405  -11.6041    0.0000 N   0  0
   -0.0813  -11.1081    0.0000 C   0  0
   -0.3475  -10.3272    0.0000 C   0  0  1  0  0  0
   -1.1750  -10.3406    0.0000 C   0  0
   -1.4138  -11.1294    0.0000 N   0  0
   -1.6712   -9.6811    0.0000 C   0  0
   -1.3477   -8.9210    0.0000 C   0  0
   -1.8440   -8.2629    0.0000 C   0  0
   -2.6637   -8.3637    0.0000 C   0  0
   -2.9847   -9.1283    0.0000 C   0  0
   -2.4865   -9.7832    0.0000 C   0  0
    0.1286   -9.6561    0.0000 C   0  0
    0.9513   -9.7312    0.0000 C   0  0
    1.4258   -9.0573    0.0000 C   0  0
    1.0788   -8.3078    0.0000 C   0  0
    0.2526   -8.2364    0.0000 C   0  0
   -0.2183   -8.9113    0.0000 C   0  0
   -0.7278  -12.4290    0.0000 C   0  0
   -1.4359  -12.8525    0.0000 N   0  0
   -0.0071  -12.8305    0.0000 N   0  0
   -0.7025  -14.0788    0.0000 N   0  0
   -2.1566  -12.4510    0.0000 C   0  0
   -3.1616   -7.7058    0.0000 Cl  0  0
   -1.4188  -13.6774    0.0000 C   0  0
   -2.1234  -14.0986    0.0000 C   0  0
   -2.1132  -14.9233    0.0000 C   0  0
   -1.3922  -15.3251    0.0000 C   0  0
   -0.6815  -14.9022    0.0000 C   0  0
 15 16  2  0
  2  1  2  0
 16 17  1  0
  3  2  2  0
 17 18  2  0
  9 10  2  0
 18 19  1  0
  4  5  1  0
 19 20  2  0
 20 15  1  0
  6 15  1  1
 10 11  1  0
  4 21  1  0
 21 22  1  0
 11 12  2  0
 21 23  2  0
 23  2  1  0
  5  6  1  0
  2 24  1  0
 12 13  1  0
 22 25  1  0
  6  7  1  0
 12 26  1  0
 24 27  1  0
 13 14  2  0
 14  9  1  0
  7  9  1  0
  7  8  2  0
  8  4  1  0
 24 31  1  0
 27 28  1  0
 28 29  1  0
 29 30  1  0
 30 31  1  0
M  END