
  SciTegic12231509382D

 25 27  0  0  0  0            999 V2000
   -4.4657    1.5080    0.0000 C   0  0
   -4.4669    0.6803    0.0000 C   0  0
   -3.7540    0.2674    0.0000 C   0  0
   -3.7560    1.9207    0.0000 C   0  0
   -3.0378    1.5119    0.0000 C   0  0
   -3.0367    0.6845    0.0000 C   0  0
   -2.3208    0.2736    0.0000 C   0  0
   -1.6055    0.6888    0.0000 N   0  0
   -1.6106    1.5194    0.0000 C   0  0
   -2.3270    1.9266    0.0000 C   0  0
   -2.3185   -0.5493    0.0000 C   0  0
   -3.0336   -0.9629    0.0000 C   0  0
   -3.0320   -1.7871    0.0000 C   0  0
   -2.3160   -2.1987    0.0000 C   0  0
   -1.6002   -1.7801    0.0000 C   0  0
   -1.6053   -0.9572    0.0000 C   0  0
   -0.8931   -0.5411    0.0000 Cl  0  0
   -0.8988    1.9364    0.0000 C   0  0
   -0.1817    1.5285    0.0000 N   0  0
   -0.9041    2.7614    0.0000 O   0  0
   -0.1763    0.7035    0.0000 C   0  0
    0.5301    1.9456    0.0000 C   0  0
    1.2473    1.5378    0.0000 C   0  0
    0.5248    2.7706    0.0000 C   0  0
    1.9589    1.9548    0.0000 C   0  0
  5  6  1  0
 12 13  1  0
  3  6  2  0
 13 14  2  0
  6  7  1  0
 14 15  1  0
  1  2  2  0
 15 16  2  0
 16 11  1  0
  7 11  1  0
  7  8  2  0
 16 17  1  0
  5  4  2  0
  9 18  1  0
  8  9  1  0
 18 19  1  0
  4  1  1  0
 18 20  2  0
  9 10  2  0
 19 21  1  0
 10  5  1  0
 19 22  1  0
 22 23  1  0
  2  3  1  0
 22 24  1  0
 11 12  2  0
 23 25  1  0
M  END