
  SciTegic01161211262D

 43 48  0  0  0  0            999 V2000
    0.4383   -1.6005    0.0000 C   0  0
    1.1242   -1.1425    0.0000 C   0  0
    1.8958   -1.4315    0.0000 N   0  0
    1.1546   -0.3213    0.0000 C   0  0
    1.9487   -0.0976    0.0000 N   0  0
    2.4015   -0.7832    0.0000 C   0  0
    3.1935   -0.5645    0.0000 S   0  0
    2.4609    0.5448    0.0000 C   0  0
    3.2309    0.2521    0.0000 C   0  0
    3.8673    0.7723    0.0000 C   0  0
    3.7340    1.5847    0.0000 C   0  0
    2.9605    1.8752    0.0000 C   0  0
    2.3274    1.3532    0.0000 C   0  0
   -0.9889   -1.6041    0.0000 C   0  0
   -0.9901   -2.4315    0.0000 C   0  0
   -0.2753   -2.8444    0.0000 C   0  0
    0.4412   -2.4310    0.0000 C   0  0
   -0.2771   -1.1914    0.0000 C   0  0
   -1.7049   -2.8434    0.0000 N   0  0
   -2.4190   -2.4304    0.0000 C   0  0
   -3.1338   -2.8423    0.0000 N   0  0
   -2.4184   -1.6054    0.0000 O   0  0
   -3.8480   -2.4292    0.0000 C   0  0
   -3.9293   -1.6059    0.0000 C   0  0
   -4.7362   -1.4338    0.0000 C   0  0
   -5.1492   -2.1480    0.0000 O   0  0
   -4.5976   -2.7614    0.0000 N   0  0
   -5.0711   -0.6798    0.0000 C   0  0
   -4.5857   -0.0128    0.0000 C   0  0
   -5.9000   -0.6792    0.0000 C   0  0
   -5.4917    0.0375    0.0000 C   0  0
    4.4243    2.0365    0.0000 C   0  0
    5.1607    1.6646    0.0000 C   0  0
    5.8510    2.1165    0.0000 C   0  0
    6.5874    1.7446    0.0000 N   0  0
    5.8048    2.9402    0.0000 O   0  0
    6.6274    0.9152    0.0000 C   0  0
    7.3597    0.5432    0.0000 C   0  0
    8.0526    0.9916    0.0000 N   0  0
    8.0084    1.8164    0.0000 C   0  0
    7.2713    2.1927    0.0000 C   0  0
    8.7876    0.6170    0.0000 C   0  0
    8.8307   -0.2069    0.0000 C   0  0
 19 20  1  0
  4  2  2  0
 20 21  1  0
  9 10  1  0
 20 22  2  0
  5  6  1  0
 21 23  1  0
 23 24  1  0
 10 11  2  0
  2  3  1  0
 11 12  1  0
 24 25  2  0
 25 26  1  0
 26 27  1  0
 27 23  2  0
 12 13  2  0
 25 28  1  0
 13  8  1  0
 28 29  1  0
  1  2  1  0
 28 30  1  0
  6  7  1  0
 28 31  1  0
 14 15  2  0
 11 32  1  0
  7  9  1  0
 32 33  1  0
 15 16  1  0
 33 34  1  0
  8  5  1  0
 34 35  1  0
 16 17  2  0
 34 36  2  0
 35 37  1  0
 17  1  1  0
  3  6  2  0
  1 18  2  0
 18 14  1  0
  5  4  1  0
 35 41  1  0
 37 38  1  0
 38 39  1  0
 39 40  1  0
 40 41  1  0
 15 19  1  0
 39 42  1  0
  8  9  2  0
 42 43  1  0
M  END