
  SciTegic06051313522D

 22 24  0  0  0  0            999 V2000
   -1.6671   -8.8886    0.0000 C   0  0
   -0.9570   -8.4792    0.0000 C   0  0
   -0.9542   -7.6565    0.0000 C   0  0
   -1.6653   -7.2512    0.0000 C   0  0
   -0.2488   -7.2452    0.0000 N   0  0
    0.4628   -7.6512    0.0000 C   0  0
   -2.3706   -8.4796    0.0000 C   0  0
   -2.3718   -7.6586    0.0000 C   0  0
   -3.1514   -7.4036    0.0000 N   0  0
   -3.6335   -8.0672    0.0000 O   0  0
   -3.1494   -8.7321    0.0000 N   0  0
   -1.6654   -6.4302    0.0000 N   0  3
   -2.3765   -6.0232    0.0000 O   0  0
   -0.9607   -6.0201    0.0000 O   0  5
    1.1690   -7.2399    0.0000 C   0  0
    1.8767   -7.6492    0.0000 C   0  0
    2.5823   -7.2387    0.0000 C   0  0
    2.5797   -6.4206    0.0000 C   0  0
    1.8655   -6.0148    0.0000 C   0  0
    1.1627   -6.4278    0.0000 C   0  0
    3.2853   -6.0084    0.0000 F   0  0
    1.8777   -8.4664    0.0000 Cl  0  0
  7  1  1  0
  1  2  2  0
  2  3  1  0
  3  4  2  0
  4  8  1  0
  3  5  1  0
  5  6  1  0
  7  8  1  0
  8  9  2  0
  9 10  1  0
 10 11  1  0
 11  7  2  0
 12 13  2  0
 12 14  1  0
  4 12  1  0
  6 15  1  0
 15 16  2  0
 16 17  1  0
 17 18  2  0
 18 19  1  0
 19 20  2  0
 20 15  1  0
 18 21  1  0
 16 22  1  0
M  CHG  2  12   1  14  -1
M  END