
  SciTegic05171617262D

 33 38  0  0  0  0            999 V2000
    2.3164    0.1283    0.0000 O   0  0
    1.2785    0.7306    0.0000 C   0  0
    1.2785    2.2729    0.0000 C   0  0
    2.5654    3.0449    0.0000 C   0  0
    2.5408    4.5455    0.0000 C   0  0
    1.3120    5.3872    0.0000 C   0  0
    1.7461    6.7949    0.0000 N   0  0
    3.2390    6.8349    0.0000 C   0  0
    4.2075    7.9855    0.0000 C   0  0
    5.6995    7.6968    0.0000 C   0  0
    6.1938    6.2858    0.0000 C   0  0
    5.2080    5.1292    0.0000 C   0  0
    3.7332    5.4239    0.0000 C   0  0
    0.0000    3.0035    0.0000 N   0  0
   -1.2988    2.2729    0.0000 C   0  0
   -1.2988    0.7306    0.0000 C   0  0
    0.0000    0.0000    0.0000 C   0  0
   -1.2988   -0.7509    0.0000 C   0  0
   -1.2988   -2.2526    0.0000 C   0  0
    0.0000   -3.0238    0.0000 N   0  0
    1.2785   -2.2526    0.0000 C   0  0
    1.2785   -0.7509    0.0000 C   0  0
    0.0052   -4.5245    0.0000 C   0  0
    1.2967   -5.2860    0.0000 N   0  0
    1.2828   -6.7860    0.0000 C   0  0
   -0.0231   -7.5239    0.0000 C   0  0
   -1.3151   -6.7620    0.0000 C   0  0
   -1.3013   -5.2620    0.0000 N   0  0
   -2.6217   -7.5003    0.0000 N   0  0
   -2.7756   -8.9796    0.0000 C   0  0
   -4.2461   -9.2756    0.0000 C   0  0
   -4.9820   -7.9685    0.0000 C   0  0
   -3.9663   -6.8647    0.0000 N   0  0
  1  2  2  0
  2  3  1  0
  3  4  1  0
  4  5  1  0
  5  6  2  0
  6  7  1  0
  7  8  1  0
  8  9  2  0
  9 10  1  0
 10 11  2  0
 11 12  1  0
 12 13  2  0
  5 13  1  0
  8 13  1  0
  3 14  1  0
 14 15  1  0
 15 16  1  0
 16 17  1  0
  2 17  1  0
 17 18  1  0
 18 19  1  0
 19 20  1  0
 20 21  1  0
 21 22  1  0
 17 22  1  0
 20 23  1  0
 23 24  2  0
 24 25  1  0
 25 26  2  0
 26 27  1  0
 27 28  2  0
 23 28  1  0
 27 29  1  0
 29 30  1  0
 30 31  2  0
 31 32  1  0
 32 33  2  0
 29 33  1  0
M  END