
          11280715452D 1   1.00000     0.00000     0

 27 29  0     0  0            999 V2000
    0.6000   -0.3875    0.0000 N   0  0  3  0  0  0           0  0  0
    0.6792    0.4375    0.0000 C   0  0  0  0  0  0           0  0  0
    1.3500   -0.7167    0.0000 C   0  0  0  0  0  0           0  0  0
    1.4875    0.6125    0.0000 C   0  0  0  0  0  0           0  0  0
    1.9000   -0.1042    0.0000 C   0  0  0  0  0  0           0  0  0
   -0.1125   -0.8042    0.0000 C   0  0  0  0  0  0           0  0  0
   -2.2583   -0.3917    0.0000 C   0  0  0  0  0  0           0  0  0
    1.8917    1.3208    0.0000 C   0  0  0  0  0  0           0  0  0
    2.7125    1.3208    0.0000 C   0  0  0  0  0  0           0  0  0
   -2.9750   -0.8042    0.0000 N   0  0  0  0  0  0           0  0  0
    3.1250    2.0458    0.0000 C   0  0  0  0  0  0           0  0  0
   -0.8333   -0.3917    0.0000 C   0  0  0  0  0  0           0  0  0
   -1.5458   -0.8042    0.0000 C   0  0  0  0  0  0           0  0  0
    2.7167   -0.1042    0.0000 C   0  0  0  0  0  0           0  0  0
    0.0625    0.9833    0.0000 O   0  0  0  0  0  0           0  0  0
    1.5250   -1.5250    0.0000 O   0  0  0  0  0  0           0  0  0
   -2.2583    0.4333    0.0000 O   0  0  0  0  0  0           0  0  0
    3.1292    0.6083    0.0000 C   0  0  0  0  0  0           0  0  0
   -3.6875   -0.3917    0.0000 C   0  0  3  0  0  0           0  0  0
    2.7042    2.7583    0.0000 O   0  0  0  0  0  0           0  0  0
    3.9500    2.0458    0.0000 O   0  0  0  0  0  0           0  0  0
   -0.1125   -1.6292    0.0000 C   0  0  0  0  0  0           0  0  0
   -1.5458   -1.6292    0.0000 C   0  0  0  0  0  0           0  0  0
   -0.8333   -2.0417    0.0000 C   0  0  0  0  0  0           0  0  0
   -4.1000   -1.1125    0.0000 C   0  0  0  0  0  0           0  0  0
   -4.4083    0.0208    0.0000 C   0  0  0  0  0  0           0  0  0
   -3.2750    0.3208    0.0000 C   0  0  0  0  0  0           0  0  0
  2  1  1  0     0  0
  3  1  1  0     0  0
  4  2  1  0     0  0
  5  3  1  0     0  0
  6  1  1  0     0  0
  7 13  1  0     0  0
  8  4  1  0     0  0
  9  8  2  0     0  0
 10  7  1  0     0  0
 11  9  1  0     0  0
 12  6  2  0     0  0
 13 12  1  0     0  0
 14  5  1  0     0  0
 15  2  2  0     0  0
 16  3  2  0     0  0
 17  7  2  0     0  0
 18 14  2  0     0  0
 19 10  1  0     0  0
 20 11  2  0     0  0
 21 11  1  0     0  0
 22  6  1  0     0  0
 23 24  1  0     0  0
 24 22  2  0     0  0
 25 19  1  0     0  0
 26 19  1  0     0  0
 27 19  1  0     0  0
  4  5  2  0     0  0
 13 23  2  0     0  0
  9 18  1  0     0  0
M  END