
  SciTegic05071316162D

 18 19  0  0  0  0            999 V2000
   18.4308   -6.4962    0.0000 C   0  0
   18.4296   -7.3158    0.0000 C   0  0
   19.1377   -7.7247    0.0000 C   0  0
   19.8473   -7.3153    0.0000 C   0  0
   19.8445   -6.4926    0.0000 C   0  0
   19.1359   -6.0874    0.0000 C   0  0
   17.7230   -6.0878    0.0000 C   0  0  1  0  0  0
   17.0154   -6.4966    0.0000 C   0  0
   16.3076   -6.0881    0.0000 C   0  0
   15.6000   -6.4969    0.0000 N   0  0
   14.8540   -6.1608    0.0000 N   0  0
   14.3073   -6.7682    0.0000 C   0  0
   14.7161   -7.4759    0.0000 N   0  0
   15.5153   -7.3056    0.0000 C   0  0
   17.7228   -5.2706    0.0000 C   0  0
   18.4304   -4.8618    0.0000 C   0  0
   20.5557   -7.7228    0.0000 O   0  0
   20.5570   -8.5400    0.0000 C   0  0
  1  2  2  0
  2  3  1  0
  3  4  2  0
  4  5  1  0
  5  6  2  0
  6  1  1  0
  1  7  1  0
  7  8  1  0
  8  9  1  0
  9 10  1  0
 10 11  1  0
 11 12  2  0
 12 13  1  0
 13 14  2  0
 14 10  1  0
  7 15  1  1
 15 16  1  0
  4 17  1  0
 17 18  1  0
M  END