
          11280715332D 1   1.00000     0.00000     0

 39 42  0     0  0            999 V2000
    1.1792   -3.3042    0.0000 C   0  0  0  0  0  0           0  0  0
    1.4375   -2.5292    0.0000 N   0  0  0  0  0  0           0  0  0
    0.7750   -2.0375    0.0000 C   0  0  0  0  0  0           0  0  0
    0.1042   -2.5167    0.0000 O   0  0  0  0  0  0           0  0  0
    0.3542   -3.3000    0.0000 C   0  0  0  0  0  0           0  0  0
    1.7625   -3.8875    0.0000 C   0  0  0  0  0  0           0  0  0
    0.7917    1.2625    0.0000 C   0  0  0  0  0  0           0  0  0
    0.7792   -1.2125    0.0000 C   0  0  0  0  0  0           0  0  0
    0.7917    0.4375    0.0000 C   0  0  0  0  0  0           0  0  0
    5.0667    1.2750    0.0000 C   0  0  0  0  0  0           0  0  0
    1.7542   -4.7125    0.0000 O   0  0  0  0  0  0           0  0  0
    0.0792    1.6708    0.0000 C   0  0  0  0  0  0           0  0  0
    1.5042    1.6750    0.0000 C   0  0  0  0  0  0           0  0  0
   -0.6333    2.9125    0.0000 N   0  0  0  0  0  0           0  0  0
    5.7792    1.6833    0.0000 O   0  0  0  0  0  0           0  0  0
    1.5000   -0.8000    0.0000 C   0  0  0  0  0  0           0  0  0
    0.0667   -0.7917    0.0000 C   0  0  0  0  0  0           0  0  0
    1.5000    0.0250    0.0000 C   0  0  0  0  0  0           0  0  0
    0.0667    0.0333    0.0000 C   0  0  0  0  0  0           0  0  0
    2.4750   -3.4667    0.0000 N   0  0  0  0  0  0           0  0  0
    5.0667    0.4500    0.0000 O   0  0  0  0  0  0           0  0  0
    0.0792    2.5000    0.0000 C   0  0  0  0  0  0           0  0  0
    5.8167   -4.8042    0.0000 C   0  0  0  0  0  0           0  0  0
    4.4417   -4.4292    0.0000 O   0  0  0  0  0  0           0  0  0
    4.3542    1.6875    0.0000 C   0  0  0  0  0  0           0  0  0
   -1.3458    2.5000    0.0000 C   0  0  0  0  0  0           0  0  0
    2.2167    1.2625    0.0000 C   0  0  0  0  0  0           0  0  0
   -0.6333    1.2583    0.0000 C   0  0  0  0  0  0           0  0  0
    3.0625   -4.0542    0.0000 C   0  0  0  0  0  0           0  0  0
    5.2375   -4.2167    0.0000 C   0  0  0  0  0  0           0  0  0
    3.8542   -3.8500    0.0000 C   0  0  0  0  0  0           0  0  0
    5.6000   -5.6000    0.0000 C   0  0  0  0  0  0           0  0  0
    6.6125   -4.5875    0.0000 C   0  0  0  0  0  0           0  0  0
    3.6417    1.2708    0.0000 C   0  0  0  0  0  0           0  0  0
    2.9292    1.6833    0.0000 C   0  0  0  0  0  0           0  0  0
   -1.3458    1.6708    0.0000 C   0  0  0  0  0  0           0  0  0
    7.1917   -5.1667    0.0000 C   0  0  0  0  0  0           0  0  0
    6.1792   -6.1792    0.0000 C   0  0  0  0  0  0           0  0  0
    6.9792   -5.9667    0.0000 C   0  0  0  0  0  0           0  0  0
  2  1  1  0     0  0
  3  2  2  0     0  0
  4  5  1  0     0  0
  5  1  2  0     0  0
  6  1  1  0     0  0
  7  9  1  0     0  0
  8  3  1  0     0  0
  9 19  2  0     0  0
 10 25  1  0     0  0
 11  6  2  0     0  0
 12  7  1  0     0  0
 13  7  2  0     0  0
 14 22  2  0     0  0
 15 10  2  0     0  0
 16  8  1  0     0  0
 17  8  2  0     0  0
 18 16  2  0     0  0
 19 17  1  0     0  0
 20  6  1  0     0  0
 21 10  1  0     0  0
 22 12  1  0     0  0
 23 30  1  0     0  0
 24 31  1  0     0  0
 25 34  1  0     0  0
 26 36  2  0     0  0
 27 13  1  0     0  0
 28 12  2  0     0  0
 29 20  1  0     0  0
 30 24  1  0     0  0
 31 29  1  0     0  0
 32 23  2  0     0  0
 33 23  1  0     0  0
 34 35  1  0     0  0
 35 27  1  0     0  0
 36 28  1  0     0  0
 37 33  2  0     0  0
 38 32  1  0     0  0
 39 37  1  0     0  0
  4  3  1  0     0  0
  9 18  1  0     0  0
 39 38  2  0     0  0
 26 14  1  0     0  0
M  END