
          11280715252D 1   1.00000     0.00000     0

 56 57  0     1  0            999 V2000
    1.4375   -4.7167    0.0000 C   0  0  1  0  0  0           0  0  0
    3.5792   -4.3042    0.0000 C   0  0  1  0  0  0           0  0  0
    0.7250   -4.3042    0.0000 C   0  0  0  0  0  0           0  0  0
    4.2917   -4.7167    0.0000 C   0  0  0  0  0  0           0  0  0
    2.1542   -4.3042    0.0000 C   0  0  1  0  0  0           0  0  0
    2.8667   -4.7167    0.0000 C   0  0  1  0  0  0           0  0  0
    0.0042   -4.7167    0.0000 N   0  0  0  0  0  0           0  0  0
    5.0125   -4.3042    0.0000 N   0  0  0  0  0  0           0  0  0
   -0.7083   -4.3042    0.0000 C   0  0  2  0  0  0           0  0  0
    5.7250   -4.7167    0.0000 C   0  0  2  0  0  0           0  0  0
   -1.4208   -4.7167    0.0000 C   0  0  0  0  0  0           0  0  0
    6.4417   -4.3042    0.0000 C   0  0  0  0  0  0           0  0  0
    3.5792   -3.4792    0.0000 O   0  0  0  0  0  0           0  0  0
    1.4375   -5.5417    0.0000 O   0  0  0  0  0  0           0  0  0
    0.0042   -9.6667    0.0000 C   0  0  0  0  0  0           0  0  0
    3.5792    0.6458    0.0000 C   0  0  0  0  0  0           0  0  0
    0.0042  -10.4917    0.0000 C   0  0  0  0  0  0           0  0  0
    3.5792    1.4708    0.0000 C   0  0  0  0  0  0           0  0  0
    4.2917    0.2333    0.0000 C   0  0  0  0  0  0           0  0  0
    0.7167   -9.2542    0.0000 C   0  0  0  0  0  0           0  0  0
    4.2917   -5.5417    0.0000 O   0  0  0  0  0  0           0  0  0
    0.7250   -3.4792    0.0000 O   0  0  0  0  0  0           0  0  0
   -1.4208   -5.5417    0.0000 O   0  0  0  0  0  0           0  0  0
    6.4417   -3.4792    0.0000 O   0  0  0  0  0  0           0  0  0
   -0.7083  -10.9042    0.0000 O   0  0  0  0  0  0           0  0  0
    2.8667    1.8833    0.0000 O   0  0  0  0  0  0           0  0  0
    7.1542   -4.7167    0.0000 N   0  0  0  0  0  0           0  0  0
   -2.1333   -4.3042    0.0000 N   0  0  0  0  0  0           0  0  0
    2.8667   -5.5417    0.0000 O   0  0  0  0  0  0           0  0  0
    2.1542   -3.4792    0.0000 O   0  0  0  0  0  0           0  0  0
    0.7167   -8.4292    0.0000 C   0  0  0  0  0  0           0  0  0
    4.3000   -0.5917    0.0000 C   0  0  0  0  0  0           0  0  0
    0.7250   -5.9542    0.0000 C   0  0  0  0  0  0           0  0  0
    4.2917   -3.0667    0.0000 C   0  0  0  0  0  0           0  0  0
    5.7250   -5.5417    0.0000 C   0  0  3  0  0  0           0  0  0
   -0.7083   -3.4792    0.0000 C   0  0  3  0  0  0           0  0  0
    0.7250   -6.7792    0.0000 C   0  0  0  0  0  0           0  0  0
    4.2917   -2.2417    0.0000 C   0  0  0  0  0  0           0  0  0
    0.7250  -10.9042    0.0000 O   0  0  0  0  0  0           0  0  0
    4.2917    1.8833    0.0000 O   0  0  0  0  0  0           0  0  0
    0.0042   -8.0167    0.0000 C   0  0  0  0  0  0           0  0  0
    1.4375   -8.0125    0.0000 C   0  0  0  0  0  0           0  0  0
    5.0125   -1.0042    0.0000 C   0  0  0  0  0  0           0  0  0
    3.5792   -1.0125    0.0000 C   0  0  0  0  0  0           0  0  0
    5.0125   -1.8292    0.0000 C   0  0  0  0  0  0           0  0  0
    0.0042   -7.1917    0.0000 C   0  0  0  0  0  0           0  0  0
    1.4292   -7.1875    0.0000 C   0  0  0  0  0  0           0  0  0
    3.5792   -1.8292    0.0000 C   0  0  0  0  0  0           0  0  0
   -2.8458   -4.7167    0.0000 C   0  0  0  0  0  0           0  0  0
    7.8667   -4.3042    0.0000 C   0  0  0  0  0  0           0  0  0
   -1.4208   -3.0667    0.0000 C   0  0  0  0  0  0           0  0  0
    0.0042   -3.0667    0.0000 C   0  0  0  0  0  0           0  0  0
    5.0125   -5.9542    0.0000 C   0  0  0  0  0  0           0  0  0
    6.4417   -5.9542    0.0000 C   0  0  0  0  0  0           0  0  0
    0.7250  -11.7292    0.0000 C   0  0  0  0  0  0           0  0  0
    4.2917    2.7083    0.0000 C   0  0  0  0  0  0           0  0  0
  2  6  1  0     0  0
  3  1  1  0     0  0
  4  2  1  0     0  0
  5  1  1  0     0  0
  6  5  1  0     0  0
  7  3  1  0     0  0
  8  4  1  0     0  0
  9  7  1  0     0  0
 10  8  1  0     0  0
 11  9  1  0     0  0
 12 10  1  0     0  0
  2 13  1  1     0  0
  1 14  1  1     0  0
 15 20  2  0     0  0
 16 19  2  0     0  0
 17 15  1  0     0  0
 18 16  1  0     0  0
 19 32  1  0     0  0
 20 31  1  0     0  0
 21  4  2  0     0  0
 22  3  2  0     0  0
 23 11  2  0     0  0
 24 12  2  0     0  0
 25 17  2  0     0  0
 26 18  2  0     0  0
 27 12  1  0     0  0
 28 11  1  0     0  0
  6 29  1  6     0  0
  5 30  1  6     0  0
 31 42  1  0     0  0
 32 44  1  0     0  0
 33 14  1  0     0  0
 34 13  1  0     0  0
 10 35  1  6     0  0
  9 36  1  6     0  0
 37 33  1  0     0  0
 38 34  1  0     0  0
 39 17  1  0     0  0
 40 18  1  0     0  0
 41 46  1  0     0  0
 42 47  2  0     0  0
 43 45  1  0     0  0
 44 48  2  0     0  0
 45 38  2  0     0  0
 46 37  2  0     0  0
 47 37  1  0     0  0
 48 38  1  0     0  0
 49 28  1  0     0  0
 50 27  1  0     0  0
 51 36  1  0     0  0
 52 36  1  0     0  0
 53 35  1  0     0  0
 54 35  1  0     0  0
 55 39  1  0     0  0
 56 40  1  0     0  0
 41 31  2  0     0  0
 43 32  2  0     0  0
M  END