
  SciTegic01161211272D

 40 46  0  0  0  0            999 V2000
   12.3150    0.3144    0.0000 N   0  0
   13.7417    0.3073    0.0000 C   0  0
   13.0302    0.7247    0.0000 C   0  0
   10.9408    2.0080    0.0000 C   0  0
   11.6417    1.5719    0.0000 C   0  0
   11.6180    0.7449    0.0000 C   0  0
   14.4768    0.6632    0.0000 C   0  0
   15.1777    0.2312    0.0000 N   0  0
   14.4962    1.4902    0.0000 O   0  0
   15.1497   -0.5921    0.0000 C   0  0
   15.8465   -1.0279    0.0000 C   0  0
   16.5733   -0.6364    0.0000 N   0  0
   16.6030    0.1916    0.0000 C   0  0
   15.8978    0.6280    0.0000 C   0  0
   17.2696   -1.0742    0.0000 C   0  0
   12.3661    1.9671    0.0000 C   0  0
   10.2163    1.6129    0.0000 C   0  0
    9.5148    2.0511    0.0000 C   0  0
    9.4727    0.3968    0.0000 C   0  0
   10.1979    0.7896    0.0000 C   0  0
   12.3108   -0.5130    0.0000 C   0  0
   13.7375   -0.5202    0.0000 C   0  0
   13.0192   -0.9314    0.0000 C   0  0
   13.0147   -1.7532    0.0000 C   0  0
   13.7268   -2.1698    0.0000 C   0  0
   14.4453   -1.7627    0.0000 C   0  0
   14.4514   -0.9348    0.0000 C   0  0
    8.7697    0.8226    0.0000 C   0  0
    8.7901    1.6548    0.0000 C   0  0
    8.0049    1.9313    0.0000 O   0  0
    7.4992    1.2700    0.0000 C   0  0
    7.9720    0.5848    0.0000 O   0  0
   17.2348   -1.8943    0.0000 C   0  0
   17.9303   -2.3321    0.0000 C   0  0
   18.6586   -1.9479    0.0000 C   0  0
   17.9909   -0.6876    0.0000 C   0  0
   18.6861   -1.1209    0.0000 C   0  0
   19.3131   -0.5935    0.0000 N   0  0
   19.0053    0.1656    0.0000 O   0  0
   18.1882    0.1074    0.0000 N   0  0
  6  1  1  0
  8 14  1  0
 23 21  1  0
 10 11  1  0
 11 12  1  0
 22 23  1  0
 12 13  1  0
 13 14  1  0
 22  2  1  0
  2  7  1  0
  2  3  1  0
 22 27  1  0
 23 24  1  0
 24 25  1  0
 25 26  1  0
 26 27  1  0
  7  8  1  0
  1 21  1  0
  7  9  2  0
 28 29  2  0
 12 15  1  0
  8 10  1  0
  5 16  1  0
  4 17  1  0
 29 30  1  0
 30 31  1  0
 31 32  1  0
 32 28  1  0
  4  5  1  0
 15 33  2  0
 17 18  2  0
 33 34  1  0
 18 29  1  0
 34 35  2  0
 35 37  1  0
 36 15  1  0
 36 37  1  0
  1  3  1  0
 28 19  1  0
  5  6  1  0
 19 20  2  0
 20 17  1  0
 37 38  2  0
 38 39  1  0
 39 40  1  0
 40 36  2  0
M  END