
  SciTegic11161115462D

 57 63  0  0  0  0            999 V2000
   24.2664   -2.2003    0.0000 C   0  0  2  0  0  0
   24.2705   -1.3736    0.0000 C   0  0
   23.5525   -2.6053    0.0000 C   0  0  1  0  0  0
   22.1245   -2.6053    0.0000 C   0  0  2  0  0  0
   25.6985   -1.3778    0.0000 C   0  0  1  0  0  0
   24.9845   -0.9603    0.0000 C   0  0  1  0  0  0
   22.8385   -2.1920    0.0000 C   0  0  1  0  0  0
   22.1245   -3.4320    0.0000 C   0  0  2  0  0  0
   21.4106   -3.8412    0.0000 C   0  0
   23.5566   -0.9477    0.0000 C   0  0
   26.4124   -1.7870    0.0000 C   0  0
   24.9804   -2.6137    0.0000 C   0  0
   23.5440   -3.4320    0.0000 C   0  0
   22.8301   -1.3611    0.0000 C   0  0
   25.6985   -2.2045    0.0000 C   0  0
   21.4147   -2.1795    0.0000 C   0  0
   22.8385   -3.8454    0.0000 C   0  0
   26.4124   -0.9645    0.0000 C   0  0
   24.9845   -0.1378    0.0000 C   0  0
   20.6966   -3.4278    0.0000 C   0  0  2  0  0  0
   25.7069    0.2756    0.0000 C   0  0  1  0  0  0
   20.6966   -2.6011    0.0000 C   0  0
   26.4208   -0.1378    0.0000 C   0  0
   24.2580   -3.0270    0.0000 C   0  0
   23.5440   -1.7744    0.0000 C   0  0
   22.1161   -1.7744    0.0000 C   0  0
   21.8114   -4.5593    0.0000 C   0  0
   20.9847   -4.5551    0.0000 C   0  0
   19.9742   -3.8454    0.0000 O   0  0
   25.2851    0.9937    0.0000 C   0  0
   26.1118    0.9937    0.0000 C   0  0
   22.8301   -3.0187    0.0000 H   0  0
   22.1161   -4.2545    0.0000 H   0  0
   24.9804   -1.7786    0.0000 H   0  0
   22.1097   -0.9470    0.0000 O   0  0
   26.9363    1.0021    0.0000 N   0  0
   25.6924    1.7035    0.0000 O   0  0
   27.3556    0.2922    0.0000 C   0  0
   28.1801    0.3005    0.0000 C   0  0
   28.5995   -0.4092    0.0000 N   0  0
   29.4240   -0.4009    0.0000 C   0  0
   29.8433   -1.1107    0.0000 O   0  0
   29.8289    0.3172    0.0000 C   0  0
   30.6534    0.3256    0.0000 C   0  0
   31.0687   -0.3877    0.0000 C   0  0
   31.8894   -0.3814    0.0000 C   0  0
   32.2984    0.3350    0.0000 O   0  0
   31.0530    1.0419    0.0000 C   0  0
   31.8786    1.0440    0.0000 C   0  0
   32.2874    1.7562    0.0000 C   0  0
   31.8749    2.4708    0.0000 C   0  0
   31.0493    2.4686    0.0000 C   0  0
   30.6361    1.7519    0.0000 C   0  0
   32.3044   -1.0896    0.0000 O   0  0
   32.2865    3.1857    0.0000 N   0  0
   33.1115    3.1867    0.0000 C   0  0
   31.8731    3.8997    0.0000 C   0  0
  1 24  1  6
  3 25  1  1
  4 26  1  1
 27  9  1  0
 28  9  1  0
 20 29  1  1
 30 21  1  0
 21 31  1  1
  7 32  1  6
  8 33  1  6
  6 34  1  1
  6  5  1  0
 10 14  1  0
  4  8  1  0
 23 21  1  0
 22 20  1  0
 14 35  2  0
  2  1  1  0
 31 36  1  0
  3  1  1  0
 31 37  2  0
  4  7  1  0
 36 38  1  0
  5 15  1  0
 38 39  1  0
  6  2  1  0
 39 40  1  0
  7  3  1  0
 40 41  1  0
  8 17  1  0
 41 42  2  0
  9  8  1  0
 41 43  1  0
 10  2  2  0
 43 44  1  0
 44 45  2  0
  5 11  1  1
 12  1  1  0
 13  3  1  0
 44 48  1  0
 45 46  1  0
 46 47  1  0
 47 49  1  0
 48 49  2  0
 14  7  1  0
 15 12  1  0
 16  4  1  0
 17 13  1  0
 18  5  1  0
 19  6  1  0
 48 53  1  0
 49 50  1  0
 50 51  2  0
 51 52  1  0
 52 53  2  0
 20  9  1  0
 46 54  2  0
 21 19  1  0
 51 55  1  0
 22 16  1  0
 55 56  1  0
 23 18  1  0
 55 57  1  0
M  END