
  Mrv0541 09091309582D          

 43 47  0  0  0  0            999 V2000
    7.7469  -15.3510    0.0000 N   0  0  0  0  0  0  0  0  0  0  0  0
    7.7498  -16.1767    0.0000 C   0  0  0  0  0  0  0  0  0  0  0  0
    8.4612  -16.5888    0.0000 N   0  0  0  0  0  0  0  0  0  0  0  0
    8.4634  -14.9391    0.0000 C   0  0  0  0  0  0  0  0  0  0  0  0
    9.1758  -15.3511    0.0000 C   0  0  0  0  0  0  0  0  0  0  0  0
    9.1728  -16.1767    0.0000 C   0  0  0  0  0  0  0  0  0  0  0  0
    9.9552  -16.4283    0.0000 N   0  0  0  0  0  0  0  0  0  0  0  0
   10.4390  -15.7664    0.0000 C   0  0  0  0  0  0  0  0  0  0  0  0
    9.9552  -15.0981    0.0000 C   0  0  0  0  0  0  0  0  0  0  0  0
    8.4638  -14.1158    0.0000 N   0  0  0  0  0  0  0  0  0  0  0  0
    9.1750  -13.7075    0.0000 C   0  0  0  0  0  0  0  0  0  0  0  0
    9.1749  -12.8794    0.0000 C   0  0  0  0  0  0  0  0  0  0  0  0
    9.8862  -12.4668    0.0000 N   0  0  0  0  0  0  0  0  0  0  0  0
    9.8862  -11.6386    0.0000 C   0  0  0  0  0  0  0  0  0  0  0  0
   10.5975  -11.2262    0.0000 C   0  0  0  0  0  0  0  0  0  0  0  0
    9.1709  -11.2270    0.0000 O   0  0  0  0  0  0  0  0  0  0  0  0
    7.0362  -16.5873    0.0000 C   0  0  0  0  0  0  0  0  0  0  0  0
    6.3221  -16.1753    0.0000 C   0  0  0  0  0  0  0  0  0  0  0  0
    5.6050  -16.5894    0.0000 C   0  0  0  0  0  0  0  0  0  0  0  0
    5.6074  -17.4135    0.0000 C   0  0  0  0  0  0  0  0  0  0  0  0
    6.3249  -17.8259    0.0000 C   0  0  0  0  0  0  0  0  0  0  0  0
    7.0391  -17.4138    0.0000 C   0  0  0  0  0  0  0  0  0  0  0  0
   11.2621  -15.7737    0.0000 C   0  0  0  0  0  0  0  0  0  0  0  0
   11.6740  -16.4842    0.0000 O   0  0  0  0  0  0  0  0  0  0  0  0
   11.6734  -15.0583    0.0000 N   0  0  0  0  0  0  0  0  0  0  0  0
   12.4994  -15.0554    0.0000 C   0  0  0  0  0  0  0  0  0  0  0  0
   12.9106  -14.3482    0.0000 C   0  0  0  0  0  0  0  0  0  0  0  0
   12.5023  -13.6271    0.0000 N   0  0  0  0  0  0  0  0  0  0  0  0
   11.6739  -13.6261    0.0000 C   0  0  0  0  0  0  0  0  0  0  0  0
   11.2623  -14.3421    0.0000 C   0  0  0  0  0  0  0  0  0  0  0  0
   12.9163  -12.9048    0.0000 C   0  0  0  0  0  0  0  0  0  0  0  0
   13.7475  -12.9014    0.0000 C   0  0  0  0  0  0  0  0  0  0  0  0
   14.5701  -12.8986    0.0000 C   0  0  0  0  0  0  0  0  0  0  0  0
   15.3956  -12.8983    0.0000 C   0  0  0  0  0  0  0  0  0  0  0  0
   15.8059  -13.6162    0.0000 C   0  0  0  0  0  0  0  0  0  0  0  0
   16.6316  -13.6147    0.0000 C   0  0  0  0  0  0  0  0  0  0  0  0
   17.0467  -12.8991    0.0000 C   0  0  0  0  0  0  0  0  0  0  0  0
   16.6323  -12.1897    0.0000 C   0  0  0  0  0  0  0  0  0  0  0  0
   15.8060  -12.1875    0.0000 C   0  0  0  0  0  0  0  0  0  0  0  0
   13.7494  -12.0770    0.0000 H   0  0  0  0  0  0  0  0  0  0  0  0
   13.7486  -13.7247    0.0000 H   0  0  0  0  0  0  0  0  0  0  0  0
   14.5707  -13.7233    0.0000 H   0  0  0  0  0  0  0  0  0  0  0  0
   14.5726  -12.0759    0.0000 H   0  0  0  0  0  0  0  0  0  0  0  0
  4  1  1  0  0  0  0
 20 21  1  0  0  0  0
  4 10  1  0  0  0  0
 21 22  2  0  0  0  0
 22 17  1  0  0  0  0
  5  6  1  0  0  0  0
  8 23  1  0  0  0  0
 10 11  1  0  0  0  0
 23 24  2  0  0  0  0
 23 25  1  0  0  0  0
 25 26  1  0  0  0  0
 11 12  1  0  0  0  0
  2  3  1  0  0  0  0
 12 13  1  0  0  0  0
  3  6  2  0  0  0  0
 13 14  1  0  0  0  0
 25 30  1  0  0  0  0
 26 27  1  0  0  0  0
 27 28  1  0  0  0  0
 28 29  1  0  0  0  0
 29 30  1  0  0  0  0
  1  2  2  0  0  0  0
 28 31  1  0  0  0  0
 14 15  1  0  0  0  0
 31 32  1  0  0  0  0
  5  4  2  0  0  0  0
 32 33  1  0  0  0  0
 14 16  2  0  0  0  0
 33 34  1  0  0  0  0
  6  7  1  0  0  0  0
 34 35  2  0  0  0  0
  2 17  1  0  0  0  0
 35 36  1  0  0  0  0
  7  8  1  0  0  0  0
 36 37  2  0  0  0  0
 17 18  2  0  0  0  0
 37 38  1  0  0  0  0
  8  9  2  0  0  0  0
 38 39  2  0  0  0  0
 39 34  1  0  0  0  0
 32 40  1  0  0  0  0
 18 19  1  0  0  0  0
 32 41  1  0  0  0  0
  9  5  1  0  0  0  0
 33 42  1  0  0  0  0
 19 20  2  0  0  0  0
 33 43  1  0  0  0  0
M  ISO  4  40   3  41   3  42   3  43   3
M  END