
  CDK    9/16/09,10:7

 28 28  0  0  0  0  0  0  0  0999 V2000
    9.2258   -8.9967    0.0000 Br  0  0  0  0  0  0  0  0  0  0  0  0
    2.9102   -9.5467    0.0000 Br  0  0  0  0  0  0  0  0  0  0  0  0
    6.2223   -7.7729    0.0000 C   0  0  0  0  0  0  0  0  0  0  0  0
    6.2210   -8.6005    0.0000 C   0  0  0  0  0  0  0  0  0  0  0  0
    6.9340   -9.0134    0.0000 C   0  0  0  0  0  0  0  0  0  0  0  0
    7.6532   -8.6000    0.0000 C   0  0  0  0  0  0  0  0  0  0  0  0
    7.6502   -7.7690    0.0000 C   0  0  0  0  0  0  0  0  0  0  0  0
    6.9320   -7.3602    0.0000 C   0  0  0  0  0  0  0  0  0  0  0  0
    5.5060   -9.0120    0.0000 C   0  0  0  0  0  0  0  0  0  0  0  0
    4.7922   -8.5984    0.0000 N   0  0  0  0  0  0  0  0  0  0  0  0
    4.7986   -7.7729    0.0000 C   0  0  0  0  0  0  0  0  0  0  0  0
    4.0857   -7.3594    0.0000 C   0  0  0  0  0  0  0  0  0  0  0  0
    3.3697   -7.7709    0.0000 C   0  0  0  0  0  0  0  0  0  0  0  0
    3.3711   -8.6002    0.0000 C   0  0  0  0  0  0  0  0  0  0  0  0
    4.0847   -9.0099    0.0000 C   0  0  0  0  0  0  0  0  0  0  0  0
    2.6553   -7.3583    0.0000 C   0  0  0  0  0  0  0  0  0  0  0  0
    2.6554   -6.5334    0.0000 N   0  0  0  0  0  0  0  0  0  0  0  0
    1.9410   -6.1209    0.0000 O   0  0  0  0  0  0  0  0  0  0  0  0
    6.9282   -6.5352    0.0000 C   0  0  0  0  0  0  0  0  0  0  0  0
    7.6406   -6.1194    0.0000 N   0  0  0  0  0  0  0  0  0  0  0  0
    8.3556   -6.5315    0.0000 C   0  0  0  0  0  0  0  0  0  0  0  0
    9.0676   -6.1164    0.0000 C   0  0  0  0  0  0  0  0  0  0  0  0
    9.0641   -5.2905    0.0000 C   0  0  0  0  0  0  0  0  0  0  0  0
    8.3428   -4.8816    0.0000 C   0  0  0  0  0  0  0  0  0  0  0  0
    7.6338   -5.2991    0.0000 C   0  0  0  0  0  0  0  0  0  0  0  0
    9.7761   -4.8738    0.0000 C   0  0  0  0  0  0  0  0  0  0  0  0
   10.4930   -5.2820    0.0000 N   0  0  0  0  0  0  0  0  0  0  0  0
   11.2050   -4.8652    0.0000 O   0  0  0  0  0  0  0  0  0  0  0  0
 13 14  1  0  0  0  0 
  3  4  2  0  0  0  0 
 14 15  2  0  0  0  0 
 15 10  1  0  0  0  0 
  7  8  2  0  0  0  0 
 13 16  1  0  0  0  0 
  8  3  1  0  0  0  0 
 16 17  2  0  0  0  0 
 17 18  1  0  0  0  0 
  4  9  1  0  0  0  0 
  8 19  1  0  0  0  0 
  4  5  1  0  0  0  0 
 19 20  1  0  0  0  0 
  9 10  1  0  0  0  0 
 20 21  2  0  0  0  0 
 21 22  1  0  0  0  0 
 10 11  2  0  0  0  0 
 22 23  2  0  0  0  0 
  5  6  2  0  0  0  0 
 23 24  1  0  0  0  0 
 11 12  1  0  0  0  0 
 24 25  2  0  0  0  0 
 25 20  1  0  0  0  0 
 23 26  1  0  0  0  0 
 12 13  2  0  0  0  0 
 26 27  2  0  0  0  0 
  6  7  1  0  0  0  0 
 27 28  1  0  0  0  0 
M  CHG  1   1  -1
M  CHG  1   2  -1
M  CHG  1  10   1
M  CHG  1  20   1
M  END