
  CDK    12/20/10,15:21

 39 44  0  0  0  0  0  0  0  0999 V2000
   18.2986    1.7167    0.0000 C   0  0  0  0  0  0  0  0  0  0  0  0
   18.2974    0.8893    0.0000 C   0  0  0  0  0  0  0  0  0  0  0  0
   19.0122    0.4765    0.0000 C   0  0  0  0  0  0  0  0  0  0  0  0
   19.7287    0.8898    0.0000 C   0  0  0  0  0  0  0  0  0  0  0  0
   19.7258    1.7203    0.0000 N   0  0  0  0  0  0  0  0  0  0  0  0
   19.0104    2.1295    0.0000 C   0  0  0  0  0  0  0  0  0  0  0  0
   17.5826    0.4774    0.0000 C   0  0  0  0  0  0  0  0  0  0  0  0
   16.8685    0.8905    0.0000 N   0  0  0  0  0  0  0  0  0  0  0  0
   16.8731    1.7197    0.0000 C   0  0  0  0  0  0  0  0  0  0  0  0
   16.1631    2.1326    0.0000 C   0  0  0  0  0  0  0  0  0  0  0  0
   15.4458    1.7242    0.0000 C   0  0  0  0  0  0  0  0  0  0  0  0
   15.4432    0.8983    0.0000 C   0  0  0  0  0  0  0  0  0  0  0  0
   16.1578    0.4807    0.0000 C   0  0  0  0  0  0  0  0  0  0  0  0
   14.7333    2.1400    0.0000 C   0  0  0  0  0  0  0  0  0  0  0  0
   14.7370    2.9650    0.0000 O   0  0  0  0  0  0  0  0  0  0  0  0
   14.0169    1.7308    0.0000 N   0  0  0  0  0  0  0  0  0  0  0  0
   13.3008    2.1459    0.0000 C   0  0  0  0  0  0  0  0  0  0  0  0
   12.5866    1.7402    0.0000 C   0  0  0  0  0  0  0  0  0  0  0  0
   12.5786    0.9148    0.0000 C   0  0  0  0  0  0  0  0  0  0  0  0
   13.2910    0.4969    0.0000 C   0  0  0  0  0  0  0  0  0  0  0  0
   14.0114    0.9042    0.0000 C   0  0  0  0  0  0  0  0  0  0  0  0
   11.8607    0.5083    0.0000 N   0  0  0  0  0  0  0  0  0  0  0  0
   11.1081    0.8510    0.0000 C   0  0  0  0  0  0  0  0  0  0  0  0
   10.5509    0.2425    0.0000 N   0  0  0  0  0  0  0  0  0  0  0  0
   11.7658   -0.3105    0.0000 C   0  0  0  0  0  0  0  0  0  0  0  0
   10.9602   -0.4773    0.0000 C   0  0  0  0  0  0  0  0  0  0  0  0
   10.7034   -1.2569    0.0000 C   0  0  0  0  0  0  0  0  0  0  0  0
   11.2511   -1.8704    0.0000 C   0  0  0  0  0  0  0  0  0  0  0  0
   12.0590   -1.6991    0.0000 C   0  0  0  0  0  0  0  0  0  0  0  0
   12.3121   -0.9197    0.0000 C   0  0  0  0  0  0  0  0  0  0  0  0
   10.9433    1.6593    0.0000 O   0  0  0  0  0  0  0  0  0  0  0  0
    9.7311    0.3349    0.0000 C   0  0  0  0  0  0  0  0  0  0  0  0
    9.4012    1.0910    0.0000 C   0  0  0  0  0  0  0  0  0  0  0  0
    8.5814    1.1834    0.0000 N   0  0  0  0  0  0  0  0  0  0  0  0
    8.2552    1.9423    0.0000 C   0  0  0  0  0  0  0  0  0  0  0  0
    7.4392    2.0363    0.0000 C   0  0  0  0  0  0  0  0  0  0  0  0
    6.9456    1.3747    0.0000 O   0  0  0  0  0  0  0  0  0  0  0  0
    7.2741    0.6169    0.0000 C   0  0  0  0  0  0  0  0  0  0  0  0
    8.0961    0.5206    0.0000 C   0  0  0  0  0  0  0  0  0  0  0  0
  2  3  1  0  0  0  0 
 16 21  1  0  0  0  0 
 17 18  1  0  0  0  0 
 18 19  1  0  0  0  0 
 19 20  1  0  0  0  0 
 20 21  1  0  0  0  0 
  5  6  2  0  0  0  0 
 19 22  1  0  0  0  0 
 22 23  1  0  0  0  0 
  6  1  1  0  0  0  0 
  8 13  1  0  0  0  0 
 23 24  1  0  0  0  0 
 24 26  1  0  0  0  0 
 25 22  1  0  0  0  0 
  9 10  1  0  0  0  0 
 10 11  1  0  0  0  0 
 25 26  2  0  0  0  0 
 11 12  1  0  0  0  0 
 26 27  1  0  0  0  0 
 12 13  1  0  0  0  0 
 27 28  2  0  0  0  0 
  1  2  2  0  0  0  0 
 28 29  1  0  0  0  0 
 11 14  1  0  0  0  0 
 29 30  2  0  0  0  0 
 30 25  1  0  0  0  0 
  2  7  1  0  0  0  0 
 23 31  2  0  0  0  0 
 14 15  2  0  0  0  0 
 24 32  1  0  0  0  0 
  3  4  2  0  0  0  0 
 32 33  1  0  0  0  0 
 14 16  1  0  0  0  0 
 33 34  1  0  0  0  0 
 34 35  1  0  0  0  0 
 16 17  1  0  0  0  0 
  7  8  1  0  0  0  0 
  8  9  1  0  0  0  0 
  4  5  1  0  0  0  0 
 34 39  1  0  0  0  0 
 35 36  1  0  0  0  0 
 36 37  1  0  0  0  0 
 37 38  1  0  0  0  0 
 38 39  1  0  0  0  0 
M  END