
  SciTegic01161211262D

 25 27  0  0  0  0            999 V2000
    6.1264    0.2917    0.0000 C   0  0  2  0  0  0
    6.9522    0.2917    0.0000 C   0  0  2  0  0  0
    5.7179   -0.4219    0.0000 N   0  0
    7.3740   -0.4219    0.0000 C   0  0  1  0  0  0
    6.1264   -1.1400    0.0000 C   0  0  1  0  0  0
    6.9522   -1.1400    0.0000 C   0  0
    8.1999   -0.4219    0.0000 C   0  0
    7.3740    1.0009    0.0000 C   0  0
    6.6919   -0.0853    0.0000 C   0  0
    6.6919   -0.7675    0.0000 C   0  0
    4.8922   -0.4219    0.0000 C   0  0
    5.7179    1.0009    0.0000 H   0  0
    5.7179   -1.8581    0.0000 H   0  0
    4.4882    0.2778    0.0000 C   0  0
    6.9794    1.7057    0.0000 O   0  0
    8.1819    0.9902    0.0000 O   0  0
    8.5949    1.6846    0.0000 C   0  0
    8.6110   -1.1394    0.0000 C   0  0
    9.4360   -1.1397    0.0000 C   0  0
    9.8498   -0.4240    0.0000 C   0  0
    9.4324    0.2935    0.0000 C   0  0
    8.6087    0.2904    0.0000 C   0  0
   10.6577   -0.4230    0.0000 C   0  0
    3.6803    0.2778    0.0000 C   0  0
    3.2764    0.9774    0.0000 I   0  0
  5 13  1  6
  5 10  1  0
  4  6  1  0
 11 14  1  0
  2  1  1  0
  8 15  2  0
  3  1  1  0
  8 16  1  0
  4  2  1  0
 16 17  1  0
  5  3  1  0
  7 18  2  0
  6  5  1  0
 18 19  1  0
  4  7  1  1
 19 20  2  0
  2  8  1  1
 20 21  1  0
  9  1  1  0
 21 22  2  0
 22  7  1  0
 10  9  1  0
 20 23  1  0
 11  3  1  0
 14 24  2  0
  1 12  1  6
 24 25  1  0
M  END