
  SciTegic01091216402D

 23 24  0  0  0  0            999 V2000
   18.8323   -7.2414    0.0000 N   0  0
   18.8509   -8.0673    0.0000 N   0  0
   19.6390   -8.3004    0.0000 C   0  0
   20.1086   -7.6211    0.0000 C   0  0
   19.6074   -6.9672    0.0000 C   0  0
   18.1533   -6.7715    0.0000 C   0  0
   17.4362   -7.1785    0.0000 N   0  0
   18.1607   -5.9493    0.0000 N   0  0
   20.9345   -7.6026    0.0000 C   0  0
   21.3618   -8.3049    0.0000 C   0  0
   18.8778   -5.5422    0.0000 C   0  0
   19.5875   -5.9573    0.0000 C   0  0
   16.7258   -6.7622    0.0000 S   0  0
   17.1415   -6.0537    0.0000 O   0  0
   16.0238   -7.1970    0.0000 C   0  0
   16.0499   -8.0212    0.0000 C   0  0
   15.3477   -8.4559    0.0000 C   0  0
   14.6196   -8.0665    0.0000 C   0  0
   14.5934   -7.2423    0.0000 C   0  0
   15.2955   -6.8076    0.0000 C   0  0
   16.1379   -6.1720    0.0000 O   0  0
   13.8667   -6.8525    0.0000 Cl  0  0
   15.3319   -5.9834    0.0000 F   0  0
  3  4  1  0
  4  5  1  0
  1  5  1  0
  6  7  2  0
  6  8  1  0
  1  6  1  0
  9 10  1  0
  4  9  1  0
 11 12  1  0
  8 11  1  0
 13 14  2  0
 15 16  1  0
 16 17  2  0
 17 18  1  0
 18 19  2  0
 19 20  1  0
 15 20  2  0
 13 15  1  0
  7 13  1  0
 13 21  2  0
  1  2  1  0
 19 22  1  0
  2  3  2  0
 20 23  1  0
M  END