
  SciTegic05171617282D

 29 31  0  0  0  0            999 V2000
   -8.8378    5.8598    0.0000 C   0  0
   -7.8005    5.2565    0.0000 C   0  0
   -7.8042    3.7557    0.0000 N   0  0
   -9.1076    3.0117    0.0000 C   0  0
  -10.1443    3.6161    0.0000 C   0  0
   -6.5068    3.0012    0.0000 C   0  0
   -5.4659    3.5983    0.0000 O   0  0
   -6.5106    1.5004    0.0000 C   0  0
   -5.2109    0.7498    0.0000 N   0  0
   -3.9106    1.4992    0.0000 S   0  0
   -4.9495    2.0999    0.0000 O   0  0
   -3.9101    2.6992    0.0000 O   0  0
   -2.6111    0.7486    0.0000 C   0  0
   -2.6111   -0.7486    0.0000 C   0  0
   -1.2964   -1.4973    0.0000 C   0  0
    0.0000   -0.7486    0.0000 C   0  0
    1.2964   -1.4973    0.0000 N   0  0
    2.5929   -0.7486    0.0000 C   0  0
    3.6321   -1.3486    0.0000 O   0  0
    2.5929    0.7486    0.0000 C   0  0
    1.2964    1.4973    0.0000 C   0  0
    0.0000    0.7486    0.0000 C   0  0
   -1.2964    1.4973    0.0000 C   0  0
   -7.8109    0.7510    0.0000 C   0  0
   -9.1110    1.4993    0.0000 C   0  0
  -10.4091    0.7476    0.0000 C   0  0
  -10.4072   -0.7524    0.0000 C   0  0
   -9.1072   -1.5007    0.0000 C   0  0
   -7.8091   -0.7491    0.0000 C   0  0
  1  2  1  0
  2  3  1  0
  3  4  1  0
  4  5  1  0
  3  6  1  0
  6  7  2  0
  6  8  1  0
  8  9  1  0
  9 10  1  0
 10 11  2  0
 10 12  2  0
 10 13  1  0
 13 14  2  0
 14 15  1  0
 15 16  2  0
 16 17  1  0
 17 18  1  0
 18 19  2  0
 18 20  1  0
 20 21  1  0
 21 22  1  0
 16 22  1  0
 22 23  2  0
 13 23  1  0
  8 24  1  0
 24 25  2  0
 25 26  1  0
 26 27  2  0
 27 28  1  0
 28 29  2  0
 24 29  1  0
M  END