
          08180812472D 1   1.00000     0.00000     0

 32 35  0     1  0            999 V2000
    4.7220   -9.7205    0.0000 C   0  0  0  0  0  0           0  0  0
    4.7220   -8.8955    0.0000 C   0  0  0  0  0  0           0  0  0
    5.4367   -8.4853    0.0000 C   0  0  1  0  0  0           0  0  0
    5.4367  -10.1353    0.0000 C   0  0  0  0  0  0           0  0  0
    6.1514   -9.7205    0.0000 C   0  0  2  0  0  0           0  0  0
    6.8661  -10.1353    0.0000 C   0  0  0  0  0  0           0  0  0
    7.5808   -9.7205    0.0000 C   0  0  0  0  0  0           0  0  0
    7.5808   -8.8955    0.0000 C   0  0  1  0  0  0           0  0  0
    8.2955   -8.4853    0.0000 C   0  0  2  0  0  0           0  0  0
    9.0809   -8.7392    0.0000 C   0  0  0  0  0  0           0  0  0
    9.5656   -8.0706    0.0000 C   0  0  0  0  0  0           0  0  0
    9.0809   -7.4064    0.0000 C   0  0  1  0  0  0           0  0  0
    8.2955   -7.6604    0.0000 C   0  0  2  0  0  0           0  0  0
    8.2955   -6.8354    0.0000 C   0  0  0  0  0  0           0  0  0
    7.5808   -7.2456    0.0000 C   0  0  0  0  0  0           0  0  0
    6.8661   -7.6604    0.0000 C   0  0  0  0  0  0           0  0  0
    6.8661   -8.4853    0.0000 C   0  0  2  0  0  0           0  0  0
    6.1514   -8.8955    0.0000 C   0  0  1  0  0  0           0  0  0
    6.1514   -8.0706    0.0000 C   0  0  0  0  0  0           0  0  0
    4.0073  -10.1353    0.0000 O   0  0  0  0  0  0           0  0  0
    9.3348   -6.6256    0.0000 O   0  0  0  0  0  0           0  0  0
    5.4367   -7.6604    0.0000 C   0  0  0  0  0  0           0  0  0
    4.7247   -7.2407    0.0000 C   0  0  0  0  0  0           0  0  0
    4.0092   -7.6547    0.0000 C   0  0  0  0  0  0           0  0  0
    4.0082   -8.4794    0.0000 C   0  0  0  0  0  0           0  0  0
    3.2973   -8.8888    0.0000 C   0  0  0  0  0  0           0  0  0
    3.2962   -9.7135    0.0000 C   0  0  0  0  0  0           0  0  0
    2.5808  -10.1275    0.0000 N   0  0  0  0  0  0           0  0  0
    6.1514  -10.5455    0.0000 H   0  0  0  0  0  0           0  0  0
    6.8661   -9.3103    0.0000 H   0  0  0  0  0  0           0  0  0
    7.5808   -8.0706    0.0000 H   0  0  0  0  0  0           0  0  0
    8.2955   -9.3103    0.0000 H   0  0  0  0  0  0           0  0  0
  1  2  1  0     0  0
  2  3  1  0     0  0
  1  4  1  0     0  0
  4  5  1  0     0  0
  5  6  1  0     0  0
  6  7  1  0     0  0
  7  8  1  0     0  0
  8  9  1  0     0  0
  9 10  1  0     0  0
 10 11  1  0     0  0
 11 12  1  0     0  0
 12 13  1  0     0  0
  9 13  1  0     0  0
 13 14  1  1     0  0
 13 15  1  0     0  0
 15 16  1  0     0  0
 16 17  1  0     0  0
  8 17  1  0     0  0
 17 18  1  0     0  0
  3 18  1  0     0  0
  5 18  1  0     0  0
 18 19  1  1     0  0
  1 20  2  0     0  0
 12 21  1  1     0  0
 22 23  1  0     0  0
 23 24  1  0     0  0
 24 25  1  0     0  0
 25 26  1  0     0  0
 26 27  1  0     0  0
 27 28  1  0     0  0
  3 22  1  6     0  0
  5 29  1  6     0  0
 17 30  1  6     0  0
  8 31  1  1     0  0
  9 32  1  6     0  0
M  END