
  CDK    9/16/09,9:46

 29 32  0  0  0  0  0  0  0  0999 V2000
    8.9792   -0.3066    0.0000 C   0  0  0  0  0  0  0  0  0  0  0  0
    8.9779   -1.1332    0.0000 C   0  0  0  0  0  0  0  0  0  0  0  0
    9.6900   -1.5456    0.0000 C   0  0  0  0  0  0  0  0  0  0  0  0
    9.6880    0.1056    0.0000 C   0  0  0  0  0  0  0  0  0  0  0  0
   10.4057   -1.1348    0.0000 C   0  0  0  0  0  0  0  0  0  0  0  0
   10.4051   -0.3027    0.0000 C   0  0  0  0  0  0  0  0  0  0  0  0
   11.0838    0.2392    0.0000 C   0  0  0  0  0  0  0  0  0  0  0  0
   10.9011    1.0425    0.0000 O   0  0  0  0  0  0  0  0  0  0  0  0
   11.9034   -1.4293    0.0000 C   0  0  0  0  0  0  0  0  0  0  0  0
   11.0681   -1.6467    0.0000 N   0  0  0  0  0  0  0  0  0  0  0  0
   11.0167   -2.5082    0.0000 C   0  0  0  0  0  0  0  0  0  0  0  0
   11.8203   -2.8234    0.0000 N   0  0  0  0  0  0  0  0  0  0  0  0
   12.3682   -2.1565    0.0000 C   0  0  0  0  0  0  0  0  0  0  0  0
   13.1906   -2.2056    0.0000 C   0  0  0  0  0  0  0  0  0  0  0  0
   13.5594   -2.9423    0.0000 O   0  0  0  0  0  0  0  0  0  0  0  0
   13.6443   -1.5178    0.0000 O   0  0  0  0  0  0  0  0  0  0  0  0
   14.4668   -1.5668    0.0000 C   0  0  0  0  0  0  0  0  0  0  0  0
   14.9204   -0.8790    0.0000 C   0  0  0  0  0  0  0  0  0  0  0  0
    8.2652    0.1047    0.0000 C   0  0  0  0  0  0  0  0  0  0  0  0
    7.5480    0.5172    0.0000 C   0  0  0  0  0  0  0  0  0  0  0  0
    6.8339    0.9292    0.0000 Si  0  0  0  0  0  0  0  0  0  0  0  0
    6.1199    1.3411    0.0000 C   0  0  0  0  0  0  0  0  0  0  0  0
    7.2457    1.6429    0.0000 C   0  0  0  0  0  0  0  0  0  0  0  0
    6.4222    0.2155    0.0000 C   0  0  0  0  0  0  0  0  0  0  0  0
   11.8617    0.0638    0.0000 N   0  0  0  0  0  0  0  0  0  0  0  0
   12.2217   -0.6785    0.0000 C   0  0  0  0  0  0  0  0  0  0  0  0
   13.0389   -0.5654    0.0000 C   0  0  0  0  0  0  0  0  0  0  0  0
   13.1840    0.2467    0.0000 C   0  0  0  0  0  0  0  0  0  0  0  0
   12.4565    0.6356    0.0000 C   0  0  0  0  0  0  0  0  0  0  0  0
 13  9  2  0  0  0  0 
  9 26  1  0  0  0  0 
 13 14  1  0  0  0  0 
 10  5  1  0  0  0  0 
 14 15  2  0  0  0  0 
  6  7  1  0  0  0  0 
 14 16  1  0  0  0  0 
  7 25  1  0  0  0  0 
 16 17  1  0  0  0  0 
  5  6  1  0  0  0  0 
 17 18  1  0  0  0  0 
  1  2  2  0  0  0  0 
  1 19  1  0  0  0  0 
  7  8  2  0  0  0  0 
 19 20  3  0  0  0  0 
  9 10  1  0  0  0  0 
 20 21  1  0  0  0  0 
  6  4  2  0  0  0  0 
 21 22  1  0  0  0  0 
  4  1  1  0  0  0  0 
 21 23  1  0  0  0  0 
 21 24  1  0  0  0  0 
 25 26  1  0  0  0  0 
  2  3  1  0  0  0  0 
  3  5  2  0  0  0  0 
 10 11  1  0  0  0  0 
 11 12  2  0  0  0  0 
 12 13  1  0  0  0  0 
 26 27  1  0  0  0  0 
 27 28  1  0  0  0  0 
 28 29  1  0  0  0  0 
 29 25  1  0  0  0  0 
M  END