
  SciTegic01161211252D

 30 33  0  0  0  0            999 V2000
   10.8131   -8.6197    0.0000 N   0  0
   11.6141   -8.4416    0.0000 C   0  0
   12.2600   -8.9579    0.0000 C   0  0
   10.4524   -9.3649    0.0000 C   0  0
   12.2618   -9.7815    0.0000 N   0  0
   10.8102  -10.1098    0.0000 C   0  0
   11.6157  -10.2923    0.0000 C   0  0
   12.9756  -10.1949    0.0000 C   0  0
   12.9736  -11.0199    0.0000 O   0  0
   13.6909   -9.7849    0.0000 C   0  0  1  0  0  0
   14.3613  -10.2599    0.0000 N   0  0
   15.0216   -9.7653    0.0000 C   0  0
   14.7551   -8.9844    0.0000 C   0  0  2  0  0  0
   13.9303   -8.9966    0.0000 C   0  0
   15.2303   -8.3098    0.0000 O   0  0
   14.8250   -7.5912    0.0000 C   0  0
   15.2463   -6.8840    0.0000 C   0  0
   14.8416   -6.1660    0.0000 C   0  0
   14.0158   -6.1572    0.0000 C   0  0
   13.5963   -6.8726    0.0000 C   0  0
   14.0033   -7.5877    0.0000 C   0  0
   10.2461   -8.0206    0.0000 C   0  0
   10.2682   -7.1964    0.0000 C   0  0
    9.4433   -7.1743    0.0000 C   0  0
    9.4213   -7.9992    0.0000 C   0  0
   13.6085   -5.4413    0.0000 S   0  0
   14.3723  -11.0848    0.0000 C   0  0
   13.6633  -11.5068    0.0000 O   0  0
   15.0921  -11.4878    0.0000 C   0  0
   14.0256   -4.7295    0.0000 C   0  0
  6  7  1  0
 13 15  1  6
  1  4  1  0
 15 16  1  0
  5  8  1  0
 16 17  2  0
 17 18  1  0
  8  9  2  0
 18 19  2  0
  3  5  1  0
 19 20  1  0
 10  8  1  6
 20 21  2  0
 21 16  1  0
 10 11  1  0
  1 22  1  0
 22 23  1  0
  2  3  1  0
  4  6  1  0
  1  2  1  0
 23 24  1  0
 24 25  1  0
 25 22  1  0
  5  7  1  0
 19 26  1  0
 11 12  1  0
 11 27  1  0
 12 13  1  0
 27 28  2  0
 13 14  1  0
 27 29  1  0
 14 10  1  0
 26 30  1  0
M  END