
  SciTegic02011310442D

 40 44  0  0  0  0            999 V2000
   17.4785  -14.8566    0.0000 N   0  0
   18.1882  -14.4471    0.0000 C   0  0
   18.1854  -13.6245    0.0000 N   0  0
   17.4767  -13.2192    0.0000 C   0  0
   16.7705  -14.4476    0.0000 N   0  0
   16.7717  -13.6265    0.0000 C   0  0
   15.9912  -13.3716    0.0000 C   0  0
   15.5075  -14.0352    0.0000 C   0  0
   15.9892  -14.7001    0.0000 C   0  0
   18.8966  -14.8546    0.0000 S   0  0
   19.6036  -14.4449    0.0000 C   0  0
   17.4750  -12.4020    0.0000 N   0  0
   18.1818  -11.9919    0.0000 C   0  0
   20.3086  -14.8528    0.0000 C   0  0
   21.0152  -14.4438    0.0000 C   0  0
   21.0144  -13.6257    0.0000 C   0  0
   20.3011  -13.2184    0.0000 C   0  0
   19.5974  -13.6298    0.0000 C   0  0
   18.9268  -12.3239    0.0000 C   0  0
   19.4723  -11.7154    0.0000 C   0  0
   19.0621  -11.0085    0.0000 N   0  0
   18.2632  -11.1803    0.0000 N   0  0
   20.2852  -11.7990    0.0000 C   0  0
   21.7209  -13.2151    0.0000 N   0  0
   22.4298  -13.6216    0.0000 C   0  0
   23.1363  -13.2110    0.0000 C   0  0
   23.8452  -13.6175    0.0000 N   0  0
   22.4322  -14.4388    0.0000 O   0  0
   23.9302  -14.4278    0.0000 C   0  0
   24.7300  -14.5954    0.0000 C   0  0  1  0  0  0
   25.1366  -13.8865    0.0000 C   0  0
   24.5879  -13.2809    0.0000 C   0  0
   25.0646  -15.3410    0.0000 C   0  0
   24.5861  -16.0035    0.0000 O   0  0
   25.8775  -15.4240    0.0000 N   0  0
   26.3559  -14.7615    0.0000 C   0  0
   27.1689  -14.8446    0.0000 C   0  0
   27.6473  -14.1821    0.0000 F   0  0
   27.5034  -15.5902    0.0000 F   0  0
   27.9826  -14.8415    0.0000 F   0  0
  5  1  1  0
  1  2  2  0
  2  3  1  0
  3  4  2  0
  4  6  1  0
  5  6  1  0
  6  7  2  0
  7  8  1  0
  8  9  2  0
  9  5  1  0
  2 10  1  0
 10 11  1  0
  4 12  1  0
 12 13  1  0
 11 14  2  0
 14 15  1  0
 15 16  2  0
 16 17  1  0
 17 18  2  0
 18 11  1  0
 13 19  1  0
 19 20  2  0
 20 21  1  0
 21 22  1  0
 22 13  2  0
 20 23  1  0
 16 24  1  0
 24 25  1  0
 25 26  1  0
 26 27  1  0
 25 28  2  0
 27 29  1  0
 29 30  1  0
 30 31  1  0
 31 32  1  0
 32 27  1  0
 30 33  1  1
 33 34  2  0
 33 35  1  0
 35 36  1  0
 36 37  1  0
 37 38  1  0
 37 39  1  0
 37 40  1  0
M  END