
          05080814042D 1   1.00000     0.00000     0

 35 39  0     1  0            999 V2000
   -4.4770   -5.0733    0.0000 C   0  0  0  0  0  0           0  0  0
   -5.1876   -5.4882    0.0000 C   0  0  0  0  0  0           0  0  0
   -5.1806   -6.3144    0.0000 C   0  0  0  0  0  0           0  0  0
   -4.4669   -6.7179    0.0000 C   0  0  0  0  0  0           0  0  0
   -3.7638   -5.4805    0.0000 C   0  0  0  0  0  0           0  0  0
   -3.7577   -6.3081    0.0000 C   0  0  0  0  0  0           0  0  0
   -3.0419   -6.7145    0.0000 C   0  0  0  0  0  0           0  0  0
   -3.0540   -5.0592    0.0000 C   0  0  0  0  0  0           0  0  0
   -2.3336   -5.4701    0.0000 C   0  0  2  0  0  0           0  0  0
   -2.3291   -6.2996    0.0000 C   0  0  2  0  0  0           0  0  0
   -1.6124   -6.7082    0.0000 N   0  0  3  0  0  0           0  0  0
   -0.8956   -6.2917    0.0000 C   0  0  0  0  0  0           0  0  0
   -0.9002   -5.4622    0.0000 C   0  0  1  0  0  0           0  0  0
   -1.6215   -5.0491    0.0000 C   0  0  0  0  0  0           0  0  0
   -2.3415   -4.6413    0.0000 H   0  0  0  0  0  0           0  0  0
   -2.3373   -7.1244    0.0000 H   0  0  0  0  0  0           0  0  0
   -0.1876   -5.0465    0.0000 C   0  0  0  0  0  0           0  0  0
    0.5287   -5.4558    0.0000 N   0  0  3  0  0  0           0  0  0
   -0.1913   -4.2216    0.0000 O   0  0  0  0  0  0           0  0  0
    0.5264   -6.2839    0.0000 C   0  0  0  0  0  0           0  0  0
    1.2385   -6.6931    0.0000 C   0  0  0  0  0  0           0  0  0
    1.9534   -6.2809    0.0000 N   0  0  3  0  0  0           0  0  0
    1.9517   -5.4551    0.0000 C   0  0  0  0  0  0           0  0  0
    1.2350   -5.0413    0.0000 C   0  0  0  0  0  0           0  0  0
   -4.4809   -4.2484    0.0000 O   0  0  0  0  0  0           0  0  0
   -5.1973   -3.8395    0.0000 C   0  0  0  0  0  0           0  0  0
   -1.6091   -7.5331    0.0000 C   0  0  0  0  0  0           0  0  0
    2.6682   -6.6930    0.0000 C   0  0  0  0  0  0           0  0  0
    2.6643   -7.5170    0.0000 C   0  0  0  0  0  0           0  0  0
    3.3781   -7.9290    0.0000 C   0  0  0  0  0  0           0  0  0
    4.0931   -7.5159    0.0000 C   0  0  0  0  0  0           0  0  0
    4.0899   -6.6868    0.0000 C   0  0  0  0  0  0           0  0  0
    3.3755   -6.2786    0.0000 N   0  0  0  0  0  0           0  0  0
    4.8094   -7.9241    0.0000 C   0  0  0  0  0  0           0  0  0
    5.5246   -8.3351    0.0000 N   0  0  0  0  0  0           0  0  0
  6  7  1  0     0  0
 13 17  1  1     0  0
  7 10  1  0     0  0
 17 18  1  0     0  0
  9  8  1  0     0  0
 17 19  2  0     0  0
 18 20  1  0     0  0
  9 10  1  0     0  0
  3  4  2  0     0  0
  4  6  1  0     0  0
  5  6  2  0     0  0
  1  2  2  0     0  0
 18 24  1  0     0  0
 20 21  1  0     0  0
 21 22  1  0     0  0
 22 23  1  0     0  0
 23 24  1  0     0  0
  5  1  1  0     0  0
  1 25  1  0     0  0
  2  3  1  0     0  0
 25 26  1  0     0  0
  9 14  1  0     0  0
 11 27  1  0     0  0
 10 11  1  0     0  0
 22 28  1  0     0  0
 11 12  1  0     0  0
 28 29  2  0     0  0
 12 13  1  0     0  0
 29 30  1  0     0  0
 13 14  1  0     0  0
 30 31  2  0     0  0
 31 32  1  0     0  0
  9 15  1  6     0  0
 32 33  2  0     0  0
 33 28  1  0     0  0
  5  8  1  0     0  0
 10 16  1  1     0  0
 34 35  3  0     0  0
 31 34  1  0     0  0
M  END