
  SciTegic12231509382D

 14 14  0  0  0  0            999 V2000
    4.7625   -4.7042    0.0000 C   0  0
    6.5417   -5.3292    0.0000 N   0  0
    5.8292   -5.3250    0.0000 C   0  0
    4.4000   -4.0917    0.0000 C   0  0
    4.4042   -5.3167    0.0000 C   0  0
    5.4750   -4.7042    0.0000 C   0  0
    3.3500   -4.7167    0.0000 C   0  0
    3.6875   -4.0917    0.0000 C   0  0
    3.7042   -5.3167    0.0000 C   0  0
    5.8250   -4.0917    0.0000 O   0  0
    2.6292   -4.7125    0.0000 O   0  0
    6.9000   -5.9375    0.0000 C   0  0
    7.5167   -5.5750    0.0000 C   0  0
    6.6417   -6.3750    0.0000 C   0  0
  2  3  1  0
  3  6  1  0
  4  1  2  0
  5  1  1  0
  6  1  1  0
  7  9  1  0
  8  4  1  0
  9  5  2  0
 10  6  1  0
 11  7  1  0
 12  2  1  0
 13 12  1  0
 14 12  1  0
  8  7  2  0
M  END