
          11280714462D 1   1.00000     0.00000     0

 30 33  0     1  0            999 V2000
    4.9042   -1.8250    0.0000 C   0  0  2  0  0  0           0  0  0
    3.3375   -3.3375    0.0000 C   0  0  0  0  0  0           0  0  0
    4.3875   -2.7375    0.0000 C   0  0  1  0  0  0           0  0  0
    4.9042   -2.4292    0.0000 C   0  0  2  0  0  0           0  0  0
    3.8542   -2.4292    0.0000 C   0  0  1  0  0  0           0  0  0
    4.9042   -1.2167    0.0000 C   0  0  3  0  0  0           0  0  0
    3.3375   -2.7375    0.0000 C   0  0  1  0  0  0           0  0  0
    2.8167   -3.6417    0.0000 C   0  0  0  0  0  0           0  0  0
    4.3875   -1.5167    0.0000 C   0  0  0  0  0  0           0  0  0
    3.8542   -1.8250    0.0000 C   0  0  0  0  0  0           0  0  0
    4.3250   -1.0542    0.0000 O   0  0  0  0  0  0           0  0  0
    4.3875   -3.3375    0.0000 C   0  0  0  0  0  0           0  0  0
    2.8167   -2.4292    0.0000 C   0  0  0  0  0  0           0  0  0
    5.4875   -1.0542    0.0000 C   0  0  0  0  0  0           0  0  0
    4.1667   -0.4750    0.0000 C   0  0  0  0  0  0           0  0  0
    3.8542   -3.6417    0.0000 C   0  0  0  0  0  0           0  0  0
    2.2792   -3.3375    0.0000 C   0  0  0  0  0  0           0  0  0
    3.5917   -0.3167    0.0000 O   0  0  0  0  0  0           0  0  0
    5.6375   -0.4750    0.0000 O   0  0  0  0  0  0           0  0  0
    1.7542   -3.6542    0.0000 O   0  0  0  0  0  0           0  0  0
    2.2792   -2.7375    0.0000 C   0  0  0  0  0  0           0  0  0
    5.4875   -1.6375    0.0000 C   0  0  0  0  0  0           0  0  0
    5.4875   -2.6125    0.0000 C   0  0  0  0  0  0           0  0  0
    5.8417   -2.1292    0.0000 C   0  0  0  0  0  0           0  0  0
    4.5917   -0.0542    0.0000 C   0  0  0  0  0  0           0  0  0
    5.9125   -1.4792    0.0000 C   0  0  0  0  0  0           0  0  0
    4.3875   -2.1875    0.0000 H   0  0  0  0  0  0           0  0  0
    4.9042   -2.9792    0.0000 H   0  0  0  0  0  0           0  0  0
    3.3375   -2.1292    0.0000 H   0  0  0  0  0  0           0  0  0
    3.8542   -3.0000    0.0000 H   0  0  0  0  0  0           0  0  0
  2  7  1  0     0  0
  3  4  1  0     0  0
  4  1  1  0     0  0
  5 10  1  0     0  0
  1  6  1  1     0  0
  7  5  1  0     0  0
  8  2  2  0     0  0
  9  1  1  0     0  0
 10  9  1  0     0  0
  6 11  1  0     0  0
 12  3  1  0     0  0
 13  7  1  0     0  0
  6 14  1  0     0  0
 15 11  1  0     0  0
 16 12  1  0     0  0
 17 21  1  0     0  0
 18 15  2  0     0  0
 19 14  2  0     0  0
 20 17  2  0     0  0
 21 13  1  0     0  0
 22  1  1  0     0  0
 23  4  1  0     0  0
 24 22  1  0     0  0
 25 15  1  0     0  0
 26 14  1  0     0  0
  3 27  1  1     0  0
  4 28  1  6     0  0
  7 29  1  1     0  0
  5 30  1  6     0  0
 23 24  1  0     0  0
  5  3  1  0     0  0
  2 16  1  0     0  0
  8 17  1  0     0  0
M  END