
  CDK    9/16/09,9:46

 19 21  0  0  0  0  0  0  0  0999 V2000
   -4.2649  -14.0769    0.0000 C   0  0  0  0  0  0  0  0  0  0  0  0
   -4.2663  -14.9038    0.0000 C   0  0  0  0  0  0  0  0  0  0  0  0
   -3.5539  -15.3163    0.0000 C   0  0  0  0  0  0  0  0  0  0  0  0
   -3.5558  -13.6644    0.0000 C   0  0  0  0  0  0  0  0  0  0  0  0
   -2.8383  -14.0729    0.0000 C   0  0  0  0  0  0  0  0  0  0  0  0
   -2.8392  -14.9011    0.0000 C   0  0  0  0  0  0  0  0  0  0  0  0
   -1.4070  -14.0744    0.0000 C   0  0  0  0  0  0  0  0  0  0  0  0
   -2.1244  -13.6571    0.0000 C   0  0  0  0  0  0  0  0  0  0  0  0
   -1.4079  -14.9027    0.0000 N   0  0  0  0  0  0  0  0  0  0  0  0
   -2.1274  -15.3109    0.0000 C   0  0  0  0  0  0  0  0  0  0  0  0
   -0.7026  -16.1460    0.0000 C   0  0  0  0  0  0  0  0  0  0  0  0
   -0.6946  -15.3172    0.0000 C   0  0  0  0  0  0  0  0  0  0  0  0
   -1.4222  -16.5542    0.0000 C   0  0  0  0  0  0  0  0  0  0  0  0
   -2.1303  -16.1321    0.0000 C   0  0  0  0  0  0  0  0  0  0  0  0
   -2.8477  -16.5343    0.0000 C   0  0  0  0  0  0  0  0  0  0  0  0
   -2.8583  -17.3584    0.0000 C   0  0  0  0  0  0  0  0  0  0  0  0
   -2.1453  -17.7787    0.0000 C   0  0  0  0  0  0  0  0  0  0  0  0
   -1.4308  -17.3740    0.0000 C   0  0  0  0  0  0  0  0  0  0  0  0
   -0.7006  -14.4845    0.0000 C   0  0  0  0  0  0  0  0  0  0  0  0
  5  4  2  0  0  0  0 
  4  1  1  0  0  0  0 
  5  6  1  0  0  0  0 
  9 12  1  0  0  0  0 
 10 14  1  0  0  0  0 
 13 11  1  0  0  0  0 
 11 12  1  0  0  0  0 
  2  3  1  0  0  0  0 
  3  6  2  0  0  0  0 
 13 14  2  0  0  0  0 
  1  2  2  0  0  0  0 
 14 15  1  0  0  0  0 
  5  8  1  0  0  0  0 
 15 16  2  0  0  0  0 
  6 10  1  0  0  0  0 
 16 17  1  0  0  0  0 
  9  7  1  0  0  0  0 
 17 18  2  0  0  0  0 
 18 13  1  0  0  0  0 
  7  8  1  0  0  0  0 
  9 19  1  0  0  0  0 
M  END