
  SciTegic06231513582D

 25 26  0  0  0  0            999 V2000
    4.5254   -2.9226    0.0000 S   0  3
    5.0814   -3.5273    0.0000 C   0  0  2  0  0  0
    4.6727   -4.2530    0.0000 O   0  0
    3.7725   -3.2623    0.0000 C   0  0
    3.8581   -4.0794    0.0000 C   0  0  1  0  0  0
    2.5492   -4.6511    0.0000 N   0  3
    5.8554   -3.8200    0.0000 C   0  0
    5.5599   -2.8583    0.0000 C   0  0
    3.0451   -3.9932    0.0000 C   0  0
    2.0737   -5.3125    0.0000 C   0  0
    1.7292   -4.5491    0.0000 C   0  0
    2.8709   -5.4058    0.0000 C   0  0
    5.9928   -4.6263    0.0000 C   0  0
    6.4825   -3.2854    0.0000 C   0  0
    6.3885   -2.9375    0.0000 C   0  0
    5.2179   -2.1003    0.0000 C   0  0
    7.2517   -3.5674    0.0000 C   0  0
    6.7595   -4.9033    0.0000 C   0  0
    5.6967   -1.4185    0.0000 C   0  0
    6.8751   -2.2587    0.0000 C   0  0
    7.3943   -4.3715    0.0000 C   0  0
    6.5254   -1.4976    0.0000 C   0  0
    3.5708   -4.8509    0.0000 H   0  0
    4.1909   -2.1673    0.0000 O   0  5
    1.8928   -2.8895    0.0000 I   0  5
  2  1  1  0
  3  2  1  0
  4  1  1  0
  5  4  1  0
  6  9  1  0
  2  7  1  1
  2  8  1  6
  5  9  1  6
 10  6  1  0
 11  6  1  0
 12  6  1  0
 13  7  1  0
 14  7  2  0
 15  8  1  0
 16  8  1  0
 17 14  1  0
 18 13  2  0
 19 16  1  0
 20 15  1  0
 21 18  1  0
 22 20  1  0
  5 23  1  1
  5  3  1  0
 19 22  1  0
 17 21  2  0
  1 24  1  6
M  CHG  4   1   1   6   1  24  -1  25  -1
M  END