
  SciTegic12231509382D

 13 12  0  0  0  0            999 V2000
    6.0000   -3.9917    0.0000 N   0  0
    6.7167   -3.5792    0.0000 C   0  0
    4.5750   -3.9875    0.0000 C   0  0
    3.1500   -3.9875    0.0000 O   0  0
    5.2875   -3.5750    0.0000 C   0  0
    3.8625   -3.5750    0.0000 C   0  0
    4.5750   -4.8125    0.0000 O   0  0
    2.4292   -3.5750    0.0000 C   0  0
    6.7167   -2.7542    0.0000 C   0  0
    7.4292   -3.9917    0.0000 C   0  0
    7.3000   -3.0000    0.0000 C   0  0
    1.7167   -3.9875    0.0000 C   0  0
    2.4375   -2.7500    0.0000 C   0  0
  2  1  1  0
  3  5  1  0
  4  6  1  0
  5  1  1  0
  6  3  1  0
  7  3  1  0
  8  4  1  0
  9  2  1  0
 10  2  1  0
 11  2  1  0
 12  8  1  0
 13  8  1  0
M  END