
  SciTegic12121614352D

 44 48  0  0  0  0            999 V2000
    6.0699   -6.0824    0.0000 C   0  0
    5.5974   -4.6579    0.0000 C   0  0
    4.1277   -4.3539    0.0000 N   0  0
    3.6552   -2.9294    0.0000 C   0  0
    4.4530   -2.0330    0.0000 O   0  0
    5.2721   -6.9788    0.0000 O   0  0
    7.5396   -6.3865    0.0000 N   0  0
    8.0120   -7.8110    0.0000 C   0  0
    9.4805   -8.1170    0.0000 C   0  0
    9.9498   -9.5417    0.0000 C   0  0
    8.9507  -10.6605    0.0000 C   0  0
    7.4822  -10.3545    0.0000 C   0  0
    7.0129   -8.9299    0.0000 C   0  0
    6.5951   -3.5369    0.0000 C   0  0
    6.1254   -2.1122    0.0000 C   0  0
    7.1242   -0.9931    0.0000 C   0  0
    8.5927   -1.2985    0.0000 C   0  0
    9.0626   -2.7230    0.0000 C   0  0
    8.0638   -3.8422    0.0000 C   0  0
    3.1299   -5.4750    0.0000 C   0  0
    1.6604   -5.1737    0.0000 C   0  0
    0.6647   -6.2955    0.0000 C   0  0
    1.1384   -7.7187    0.0000 C   0  0
    2.6078   -8.0201    0.0000 C   0  0
    3.6035   -6.8983    0.0000 C   0  0
    2.1855   -2.6254    0.0000 C   0  0
    1.7138   -1.2033    0.0000 C   0  0
    2.5889    0.0182    0.0000 C   0  0
    1.7138    1.2033    0.0000 N   0  0
    0.2917   -0.7475    0.0000 C   0  0
    0.2917    0.7475    0.0000 C   0  0
   -1.0028    1.5132    0.0000 C   0  0
   -2.3155    0.7475    0.0000 C   0  0
   -2.3155   -0.7475    0.0000 C   0  0
   -1.0028   -1.5132    0.0000 C   0  0
   10.5313   -3.0316    0.0000 O   0  0
   10.9056   -4.1718    0.0000 C   0  0
    9.5944   -0.1808    0.0000 O   0  0
   10.7689   -0.4268    0.0000 C   0  0
    6.6512    0.4313    0.0000 O   0  0
    5.4759    0.6739    0.0000 C   0  0
    0.1445   -8.8433    0.0000 C   0  0
    0.5250   -9.9813    0.0000 C   0  0
   -1.0315   -8.6042    0.0000 C   0  0
  1  2  1  0
  2  3  1  0
  3  4  1  0
  4  5  2  0
  1  6  2  0
  1  7  1  0
  7  8  1  0
  8  9  1  0
  8 13  1  0
  9 10  1  0
 10 11  1  0
 11 12  1  0
 12 13  1  0
 14 15  2  0
 15 16  1  0
 16 17  2  0
 17 18  1  0
 18 19  2  0
 19 14  1  0
  2 14  1  0
 20 21  2  0
 21 22  1  0
 22 23  2  0
 23 24  1  0
 24 25  2  0
 25 20  1  0
  3 20  1  0
  4 26  1  0
 26 27  1  0
 27 28  2  0
 28 29  1  0
 29 31  1  0
 30 27  1  0
 30 31  2  0
 31 32  1  0
 32 33  2  0
 33 34  1  0
 34 35  2  0
 35 30  1  0
 18 36  1  0
 36 37  1  0
 17 38  1  0
 38 39  1  0
 16 40  1  0
 40 41  1  0
 23 42  1  0
 42 43  1  0
 42 44  1  0
M  END