
  SciTegic05171617282D

 34 39  0  0  0  0            999 V2000
   -4.6549    0.8867    0.0000 O   0  0
   -3.6187    1.4919    0.0000 C   0  0
   -3.6267    2.9927    0.0000 N   0  0
   -4.9300    3.7369    0.0000 C   0  0
   -4.9402    5.2369    0.0000 C   0  0
   -6.2443    5.9781    0.0000 C   0  0
   -7.5383    5.2194    0.0000 C   0  0
   -7.5281    3.7194    0.0000 N   0  0
   -8.8212    2.9576    0.0000 C   0  0
   -8.8089    1.4568    0.0000 C   0  0
  -10.1002    0.6934    0.0000 C   0  0
  -10.0849   -0.8065    0.0000 C   0  0
   -8.7782   -1.5432    0.0000 C   0  0
   -7.4869   -0.7799    0.0000 C   0  0
   -7.5023    0.7200    0.0000 C   0  0
   -6.2240    2.9782    0.0000 C   0  0
   -2.3155    0.7475    0.0000 C   0  0
   -2.3155   -0.7475    0.0000 C   0  0
   -1.0028   -1.5132    0.0000 C   0  0
    0.2917   -0.7475    0.0000 C   0  0
    1.7138   -1.2033    0.0000 N   0  0
    2.5889    0.0182    0.0000 N   0  0
    1.7138    1.2033    0.0000 C   0  0
    2.1749    2.6315    0.0000 C   0  0
    1.2473    3.7995    0.0000 C   0  0
    1.8007    5.2149    0.0000 C   0  0
    3.2908    5.4185    0.0000 C   0  0
    4.1224    6.6589    0.0000 O   0  0
    5.5669    6.2449    0.0000 C   0  0
    5.6169    4.7726    0.0000 C   0  0
    4.2192    4.2467    0.0000 C   0  0
    3.6801    2.8427    0.0000 C   0  0
    0.2917    0.7475    0.0000 C   0  0
   -1.0028    1.5132    0.0000 C   0  0
  1  2  2  0
  2  3  1  0
  3  4  1  0
  4  5  1  0
  5  6  1  0
  6  7  1  0
  7  8  1  0
  8  9  1  0
  9 10  1  0
 10 11  2  0
 11 12  1  0
 12 13  2  0
 13 14  1  0
 14 15  2  0
 10 15  1  0
  8 16  1  0
  4 16  1  0
  2 17  1  0
 17 18  2  0
 18 19  1  0
 19 20  2  0
 20 21  1  0
 21 22  1  0
 22 23  2  0
 23 24  1  0
 24 25  2  0
 25 26  1  0
 26 27  2  0
 27 28  1  0
 28 29  1  0
 29 30  1  0
 30 31  1  0
 27 31  1  0
 31 32  2  0
 24 32  1  0
 23 33  1  0
 20 33  1  0
 33 34  2  0
 17 34  1  0
M  END