
          08180812472D 1   1.00000     0.00000     0

 21 24  0     1  0            999 V2000
   -4.6235  -12.9088    0.0000 C   0  0  0  0  0  0           0  0  0
   -4.6248  -13.7363    0.0000 C   0  0  0  0  0  0           0  0  0
   -3.9112  -14.1470    0.0000 C   0  0  0  0  0  0           0  0  0
   -3.9132  -12.4936    0.0000 C   0  0  0  0  0  0           0  0  0
   -3.1944  -12.9047    0.0000 C   0  0  0  0  0  0           0  0  0
   -3.1934  -13.7322    0.0000 C   0  0  0  0  0  0           0  0  0
   -2.4768  -14.1409    0.0000 C   0  0  0  0  0  0           0  0  0
   -1.7608  -13.7279    0.0000 C   0  0  0  0  0  0           0  0  0
   -5.3345  -12.4945    0.0000 O   0  0  0  0  0  0           0  0  0
   -2.4830  -12.4878    0.0000 C   0  0  0  0  0  0           0  0  0
   -1.7669  -12.8946    0.0000 C   0  0  0  0  0  0           0  0  0
   -1.7832  -11.2537    0.0000 C   0  0  0  0  0  0           0  0  0
   -2.4942  -11.6682    0.0000 C   0  0  0  0  0  0           0  0  0
   -1.0672  -11.6561    0.0000 C   0  0  1  0  0  0           0  0  0
   -1.0604  -12.4819    0.0000 C   0  0  1  0  0  0           0  0  0
   -0.2727  -12.7293    0.0000 C   0  0  0  0  0  0           0  0  0
    0.2047  -12.0609    0.0000 C   0  0  0  0  0  0           0  0  0
   -0.2836  -11.3959    0.0000 C   0  0  2  0  0  0           0  0  0
   -1.0757  -10.8302    0.0000 C   0  0  0  0  0  0           0  0  0
   -0.0364  -10.6090    0.0000 O   0  0  0  0  0  0           0  0  0
   -1.0666  -13.3053    0.0000 H   0  0  0  0  0  0           0  0  0
  4  1  1  0     0  0
  2  3  1  0     0  0
  5  6  1  0     0  0
 10 13  1  0     0  0
 11 15  1  0     0  0
 14 12  1  0     0  0
 12 13  1  0     0  0
 14 15  1  0     0  0
  3  6  2  0     0  0
  6  7  1  0     0  0
  1  2  2  0     0  0
  7  8  2  0     0  0
  8 11  1  0     0  0
 15 16  1  0     0  0
 16 17  1  0     0  0
 17 18  1  0     0  0
 18 14  1  0     0  0
 10  5  1  0     0  0
 14 19  1  1     0  0
  5  4  2  0     0  0
 18 20  1  1     0  0
  1  9  1  0     0  0
 15 21  1  6     0  0
 10 11  2  0     0  0
M  END