
  SciTegic09291413392D

 24 26  0  0  0  0            999 V2000
   23.9900  -11.0301    0.0000 N   0  0
   23.5775  -10.3157    0.0000 C   0  0
   23.9900   -9.6012    0.0000 C   0  0
   24.8150   -9.6012    0.0000 C   0  0
   25.2275  -10.3157    0.0000 C   0  0
   26.0525  -10.3157    0.0000 C   0  0
   26.4650  -11.0301    0.0000 C   0  0
   26.0525  -11.7446    0.0000 C   0  0
   25.2275  -11.7446    0.0000 C   0  0
   24.8150  -11.0301    0.0000 C   0  0
   22.7525  -10.3157    0.0000 N   0  0
   22.3400   -9.6012    0.0000 C   0  0
   21.5150   -9.6012    0.0000 C   0  0
   21.1025   -8.8867    0.0000 N   0  0
   20.2775   -8.8867    0.0000 C   0  0
   21.5150   -8.1723    0.0000 C   0  0
   22.3400  -11.0301    0.0000 C   0  0
   21.5150  -11.0301    0.0000 C   0  0
   21.1025  -11.7446    0.0000 C   0  0
   20.2775  -11.7446    0.0000 C   0  0
   19.8650  -11.0301    0.0000 C   0  0
   20.2775  -10.3157    0.0000 C   0  0
   21.1025  -10.3157    0.0000 C   0  0
   19.0400  -11.0301    0.0000 Cl  0  0
  1  2  2  0
  2  3  1  0
  3  4  2  0
  4  5  1  0
  5  6  2  0
  6  7  1  0
  7  8  2  0
  8  9  1  0
  9 10  2  0
  1 10  1  0
  5 10  1  0
  2 11  1  0
 12 13  1  0
 14 15  1  0
 14 16  1  0
 13 14  1  0
 11 12  1  0
 18 19  1  0
 19 20  2  0
 20 21  1  0
 21 22  2  0
 22 23  1  0
 18 23  2  0
 21 24  1  0
 17 18  1  0
 11 17  1  0
M  END