
  SciTegic09171211542D

 16 18  0  0  0  0            999 V2000
    6.7782   -8.7023    0.0000 C   0  0
    6.7770   -9.5287    0.0000 C   0  0
    7.4910   -9.9411    0.0000 N   0  0
    7.4892   -8.2900    0.0000 C   0  0
    8.2037   -8.6987    0.0000 C   0  0
    8.2085   -9.5242    0.0000 C   0  0
    8.9951   -9.7747    0.0000 N   0  0
    9.4765   -9.1040    0.0000 N   0  0
    8.9873   -8.4391    0.0000 C   0  0
    9.2373   -7.6539    0.0000 O   0  0
    9.2530  -10.5523    0.0000 C   0  0
    8.7034  -11.1678    0.0000 C   0  0
    8.9620  -11.9494    0.0000 C   0  0
    9.7699  -12.1167    0.0000 C   0  0
   10.3186  -11.4961    0.0000 C   0  0
   10.0570  -10.7169    0.0000 C   0  0
  6  7  1  0
  7  8  1  0
  8  9  1  0
  9  5  1  0
  4  1  1  0
  9 10  2  0
  5  6  1  0
 11 12  2  0
  2  3  1  0
 12 13  1  0
  3  6  2  0
 13 14  2  0
  1  2  2  0
 14 15  1  0
  5  4  2  0
 15 16  2  0
 16 11  1  0
  7 11  1  0
M  END