
  SciTegic01161211252D

 33 36  0  0  0  0            999 V2000
    7.1051  -14.6892    0.0000 O   0  0
    6.3605  -15.0445    0.0000 S   0  0
    7.0425  -15.5124    0.0000 O   0  0
    7.1332  -13.0118    0.0000 C   0  0
    7.7934  -12.5141    0.0000 C   0  0
    7.5285  -11.7328    0.0000 C   0  0
    6.7009  -11.7461    0.0000 N   0  0
    6.4590  -12.5352    0.0000 N   0  0
    6.2734  -11.0378    0.0000 C   0  0
    6.6764  -10.3189    0.0000 C   0  0
    6.2492   -9.6120    0.0000 C   0  0
    5.4233   -9.6271    0.0000 C   0  0
    5.0264  -10.3547    0.0000 C   0  0
    5.4518  -11.0587    0.0000 C   0  0
    7.9654  -11.0359    0.0000 C   0  0
    8.7911  -11.0703    0.0000 C   0  0
    9.2304  -10.3708    0.0000 C   0  0
    8.8410   -9.6406    0.0000 C   0  0
    8.0119   -9.6143    0.0000 C   0  0
    7.5805  -10.3145    0.0000 C   0  0
    7.1404  -13.8318    0.0000 C   0  0
    6.4165  -14.2225    0.0000 N   0  0
    5.6208  -15.4122    0.0000 N   0  0
    4.9985   -8.9203    0.0000 Cl  0  0
    4.9389  -14.9515    0.0000 C   0  0
    4.2015  -15.3160    0.0000 C   0  0
    4.1445  -16.1390    0.0000 C   0  0
    4.8312  -16.5962    0.0000 C   0  0
    5.5745  -16.2347    0.0000 C   0  0
    3.4642  -15.6649    0.0000 F   0  0
    3.8616  -16.9122    0.0000 F   0  0
    7.8473  -14.2493    0.0000 N   0  0
    8.5623  -13.8460    0.0000 C   0  0
 16 17  1  0
  3  2  2  0
 17 18  2  0
  9 10  2  0
 18 19  1  0
  4  5  1  0
 19 20  2  0
 20 15  1  0
  6 15  1  0
 10 11  1  0
  4 21  1  0
 21 22  2  0
 22  2  1  0
 11 12  2  0
  2 23  1  0
  5  6  1  0
 12 24  1  0
 23 25  1  0
 12 13  1  0
  6  7  1  0
 13 14  2  0
 14  9  1  0
  7  9  1  0
 23 29  1  0
 25 26  1  0
 26 27  1  0
 27 28  1  0
 28 29  1  0
  7  8  1  0
 27 30  1  0
  8  4  2  0
 27 31  1  0
 15 16  2  0
 21 32  1  0
  2  1  2  0
 32 33  1  0
M  END