
  SciTegic10191216002D

 22 23  0  0  0  0            999 V2000
   14.6750  -19.5958    0.0000 O   0  0
   14.6750  -20.4208    0.0000 C   0  0
   15.3870  -20.8292    0.0000 C   0  0
   16.0990  -20.4208    0.0000 N   0  0
   16.0990  -19.5958    0.0000 C   0  0
   15.3870  -19.1792    0.0000 C   0  0
   16.8147  -19.1854    0.0000 C   0  0
   17.5280  -19.6000    0.0000 O   0  0
   16.8171  -18.3604    0.0000 O   0  0
   16.8129  -20.8344    0.0000 C   0  0
   16.8117  -21.6594    0.0000 C   0  0
   17.5280  -20.4229    0.0000 O   0  0
   17.5256  -22.0729    0.0000 S   0  0
   17.5244  -22.8979    0.0000 C   0  0
   16.8091  -23.3070    0.0000 C   0  0
   16.8075  -24.1312    0.0000 C   0  0
   17.5220  -24.5456    0.0000 C   0  0
   18.2394  -24.1297    0.0000 C   0  0
   18.2374  -23.3068    0.0000 C   0  0
   17.5219  -25.3706    0.0000 C   0  0
   16.8073  -25.7830    0.0000 C   0  0
   18.2363  -25.7832    0.0000 C   0  0
 10 11  1  0
  4  5  1  0
 10 12  2  0
  5  6  1  0
 11 13  1  0
 13 14  1  0
  5  7  1  0
 14 15  2  0
  1  2  1  0
 15 16  1  0
  7  8  1  0
 16 17  2  0
  1  6  1  0
 17 18  1  0
  7  9  2  0
 18 19  2  0
 19 14  1  0
  2  3  1  0
 17 20  1  0
  4 10  1  0
 20 21  1  0
  3  4  1  0
 20 22  1  0
M  END