
          11280714452D 1   1.00000     0.00000     0

 35 39  0     0  0            999 V2000
   10.3667    0.8583    0.0000 N   0  0  0  0  0  0           0  0  0
    9.9625   -0.4125    0.0000 C   0  0  0  0  0  0           0  0  0
    9.5417    0.8500    0.0000 N   0  0  0  0  0  0           0  0  0
   10.6250    0.0708    0.0000 N   0  0  0  0  0  0           0  0  0
    9.2542   -2.4792    0.0000 C   0  0  0  0  0  0           0  0  0
    9.2917    0.0708    0.0000 N   0  0  0  0  0  0           0  0  0
    9.2542   -1.6542    0.0000 C   0  0  0  0  0  0           0  0  0
    2.1250   -1.6625    0.0000 N   0  0  0  0  0  0           0  0  0
    9.9667   -1.2375    0.0000 C   0  0  0  0  0  0           0  0  0
    1.4042   -1.2542    0.0000 C   0  0  0  0  0  0           0  0  0
    8.5375   -2.8917    0.0000 C   0  0  0  0  0  0           0  0  0
    7.8250   -2.4792    0.0000 C   0  0  0  0  0  0           0  0  0
    0.7000   -1.6667    0.0000 C   0  0  0  0  0  0           0  0  0
    9.9667   -2.8917    0.0000 C   0  0  0  0  0  0           0  0  0
    7.1042   -2.8917    0.0000 C   0  0  0  0  0  0           0  0  0
    1.4042   -0.4250    0.0000 C   0  0  0  0  0  0           0  0  0
   10.6792   -1.6500    0.0000 C   0  0  0  0  0  0           0  0  0
    2.8292   -1.2417    0.0000 C   0  0  0  0  0  0           0  0  0
    8.5375   -3.7167    0.0000 O   0  0  0  0  0  0           0  0  0
   10.6792   -2.4792    0.0000 C   0  0  0  0  0  0           0  0  0
   -0.0208   -1.2667    0.0000 C   0  0  0  0  0  0           0  0  0
    2.1167   -0.0125    0.0000 C   0  0  0  0  0  0           0  0  0
    0.6875   -0.0167    0.0000 C   0  0  0  0  0  0           0  0  0
    6.3917   -2.4792    0.0000 C   0  0  0  0  0  0           0  0  0
    4.2542   -1.2417    0.0000 O   0  0  0  0  0  0           0  0  0
    4.9750   -1.6542    0.0000 C   0  0  0  0  0  0           0  0  0
    3.5417   -1.6542    0.0000 C   0  0  0  0  0  0           0  0  0
    2.8292   -0.4167    0.0000 C   0  0  0  0  0  0           0  0  0
   -0.0333   -0.4292    0.0000 C   0  0  0  0  0  0           0  0  0
   -0.7333   -1.6875    0.0000 Cl  0  0  0  0  0  0           0  0  0
    9.9667   -3.7167    0.0000 O   0  0  0  0  0  0           0  0  0
    5.6875   -2.8875    0.0000 C   0  0  0  0  0  0           0  0  0
    6.4000   -1.6500    0.0000 C   0  0  0  0  0  0           0  0  0
    5.6875   -1.2375    0.0000 C   0  0  0  0  0  0           0  0  0
    4.9750   -2.4792    0.0000 C   0  0  0  0  0  0           0  0  0
  2  4  1  0     0  0
  3  1  1  0     0  0
  4  1  2  0     0  0
  5  7  2  0     0  0
  6  3  1  0     0  0
  7  9  1  0     0  0
  8 18  1  0     0  0
  9  2  1  0     0  0
 10  8  2  0     0  0
 11  5  1  0     0  0
 12 11  1  0     0  0
 13 10  1  0     0  0
 14 20  2  0     0  0
 15 12  2  0     0  0
 16 22  2  0     0  0
 17  9  2  0     0  0
 18 27  1  0     0  0
 19 11  2  0     0  0
 20 17  1  0     0  0
 21 13  2  0     0  0
 22 28  1  0     0  0
 23 16  1  0     0  0
 24 15  1  0     0  0
 25 26  1  0     0  0
 26 34  1  0     0  0
 27 25  1  0     0  0
 28 18  2  0     0  0
 29 23  2  0     0  0
 30 21  1  0     0  0
 31 14  1  0     0  0
 32 24  2  0     0  0
 33 24  1  0     0  0
 34 33  2  0     0  0
 35 32  1  0     0  0
  2  6  2  0     0  0
 14  5  1  0     0  0
 26 35  2  0     0  0
 16 10  1  0     0  0
 29 21  1  0     0  0
M  END