
          05080814042D 1   1.00000     0.00000     0

 35 39  0     1  0            999 V2000
    6.0762  -14.8134    0.0000 C   0  0  0  0  0  0           0  0  0
    6.0750  -15.6393    0.0000 C   0  0  0  0  0  0           0  0  0
    6.7886  -16.0515    0.0000 C   0  0  0  0  0  0           0  0  0
    6.7868  -14.4012    0.0000 C   0  0  0  0  0  0           0  0  0
    7.5011  -14.8097    0.0000 C   0  0  0  0  0  0           0  0  0
    7.5045  -15.6414    0.0000 C   0  0  0  0  0  0           0  0  0
    8.2225  -16.0520    0.0000 C   0  0  0  0  0  0           0  0  0
    8.2157  -14.3885    0.0000 C   0  0  0  0  0  0           0  0  0
    8.9383  -14.8038    0.0000 C   0  0  2  0  0  0           0  0  0
    8.9393  -15.6372    0.0000 C   0  0  2  0  0  0           0  0  0
    9.6577  -16.0506    0.0000 N   0  0  0  0  0  0           0  0  0
   10.3795  -15.6353    0.0000 C   0  0  0  0  0  0           0  0  0
   10.3784  -14.8020    0.0000 C   0  0  1  0  0  0           0  0  0
    9.6556  -14.3839    0.0000 C   0  0  0  0  0  0           0  0  0
   11.0916  -14.3899    0.0000 C   0  0  0  0  0  0           0  0  0
   11.8051  -14.8016    0.0000 N   0  0  3  0  0  0           0  0  0
   11.0914  -13.5663    0.0000 O   0  0  0  0  0  0           0  0  0
   11.7995  -15.6300    0.0000 C   0  0  0  0  0  0           0  0  0
   12.5088  -16.0416    0.0000 C   0  0  0  0  0  0           0  0  0
   13.2244  -15.6330    0.0000 N   0  0  3  0  0  0           0  0  0
   13.2262  -14.8084    0.0000 C   0  0  0  0  0  0           0  0  0
   12.5123  -14.3922    0.0000 C   0  0  0  0  0  0           0  0  0
    8.9312  -16.4607    0.0000 H   0  0  0  0  0  0           0  0  0
    8.9312  -13.9772    0.0000 H   0  0  0  0  0  0           0  0  0
   13.9363  -16.0473    0.0000 C   0  0  0  0  0  0           0  0  0
    6.7842  -13.5771    0.0000 O   0  0  0  0  0  0           0  0  0
    6.0697  -13.1673    0.0000 C   0  0  0  0  0  0           0  0  0
   13.9300  -16.8694    0.0000 C   0  0  0  0  0  0           0  0  0
   14.6409  -17.2836    0.0000 C   0  0  0  0  0  0           0  0  0
   15.3567  -16.8743    0.0000 C   0  0  0  0  0  0           0  0  0
   15.3570  -16.0463    0.0000 C   0  0  0  0  0  0           0  0  0
   14.6453  -15.6358    0.0000 C   0  0  0  0  0  0           0  0  0
   16.0744  -17.2888    0.0000 N   0  3  0  0  0  0           0  0  0
   16.7886  -16.8786    0.0000 O   0  0  0  0  0  0           0  0  0
   16.0726  -18.1125    0.0000 O   0  5  0  0  0  0           0  0  0
  6  7  1  0     0  0
 15 17  2  0     0  0
 16 18  1  0     0  0
  7 10  1  0     0  0
  9  8  1  0     0  0
  9 10  1  0     0  0
  5  4  2  0     0  0
  4  1  1  0     0  0
 16 22  1  0     0  0
 18 19  1  0     0  0
 19 20  1  0     0  0
 20 21  1  0     0  0
 21 22  1  0     0  0
  5  6  1  0     0  0
 10 23  1  1     0  0
  9 24  1  6     0  0
  2  3  1  0     0  0
 20 25  1  0     0  0
  3  6  2  0     0  0
  9 14  1  0     0  0
 26 27  1  0     0  0
  4 26  1  0     0  0
 10 11  1  0     0  0
 25 28  2  0     0  0
 11 12  1  0     0  0
 28 29  1  0     0  0
 12 13  1  0     0  0
 29 30  2  0     0  0
 13 14  1  0     0  0
 30 31  1  0     0  0
  1  2  2  0     0  0
 31 32  2  0     0  0
 32 25  1  0     0  0
 13 15  1  1     0  0
  5  8  1  0     0  0
 15 16  1  0     0  0
 33 34  2  0     0  0
 33 35  1  0     0  0
 30 33  1  0     0  0
M  CHG  2  33   1  35  -1
M  END