
  Mrv0541 04051115152D          

 43 47  0  0  0  0            999 V2000
   -2.3319    0.1992    0.0000 C   0  0  0  0  0  0  0  0  0  0  0  0
   -1.6175   -0.2133    0.0000 C   0  0  0  0  0  0  0  0  0  0  0  0
   -0.9030    0.1992    0.0000 C   0  0  0  0  0  0  0  0  0  0  0  0
   -1.6175   -1.0383    0.0000 C   0  0  0  0  0  0  0  0  0  0  0  0
   -2.3319   -1.4508    0.0000 C   0  0  0  0  0  0  0  0  0  0  0  0
   -3.0464   -1.0383    0.0000 C   0  0  0  0  0  0  0  0  0  0  0  0
   -3.0464   -0.2133    0.0000 C   0  0  0  0  0  0  0  0  0  0  0  0
   -2.3319    1.0242    0.0000 C   0  0  0  0  0  0  0  0  0  0  0  0
   -1.6175    1.4367    0.0000 N   0  0  0  0  0  0  0  0  0  0  0  0
   -1.6175    2.2617    0.0000 C   0  0  0  0  0  0  0  0  0  0  0  0
   -2.3319    2.6742    0.0000 C   0  0  0  0  0  0  0  0  0  0  0  0
   -2.3319    3.4992    0.0000 O   0  0  0  0  0  0  0  0  0  0  0  0
   -3.0464    2.2617    0.0000 N   0  0  0  0  0  0  0  0  0  0  0  0
   -3.0464    1.4367    0.0000 C   0  0  0  0  0  0  0  0  0  0  0  0
   -0.9030   -1.4508    0.0000 N   0  0  0  0  0  0  0  0  0  0  0  0
   -0.9030   -2.2758    0.0000 C   0  0  0  0  0  0  0  0  0  0  0  0
   -1.6175   -2.6883    0.0000 O   0  0  0  0  0  0  0  0  0  0  0  0
   -0.1885   -2.6883    0.0000 C   0  0  0  0  0  0  0  0  0  0  0  0
    0.5259   -2.2758    0.0000 C   0  0  0  0  0  0  0  0  0  0  0  0
    1.2404   -2.6883    0.0000 C   0  0  0  0  0  0  0  0  0  0  0  0
    1.2404   -3.5133    0.0000 C   0  0  0  0  0  0  0  0  0  0  0  0
    0.5259   -3.9258    0.0000 C   0  0  0  0  0  0  0  0  0  0  0  0
   -0.1885   -3.5133    0.0000 C   0  0  0  0  0  0  0  0  0  0  0  0
    1.9549   -3.9258    0.0000 C   0  0  0  0  0  0  0  0  0  0  0  0
    2.6694   -4.3383    0.0000 C   0  0  0  0  0  0  0  0  0  0  0  0
    2.3674   -3.2114    0.0000 C   0  0  0  0  0  0  0  0  0  0  0  0
    1.5424   -4.6403    0.0000 C   0  0  0  0  0  0  0  0  0  0  0  0
   -0.1885    2.2617    0.0000 C   0  0  0  0  0  0  0  0  0  0  0  0
   -0.9030    2.6742    0.0000 N   0  0  0  0  0  0  0  0  0  0  0  0
    0.5259    2.6742    0.0000 C   0  0  0  0  0  0  0  0  0  0  0  0
    1.2404    2.2617    0.0000 C   0  0  0  0  0  0  0  0  0  0  0  0
    1.2404    1.4367    0.0000 C   0  0  0  0  0  0  0  0  0  0  0  0
    0.5259    1.0242    0.0000 C   0  0  0  0  0  0  0  0  0  0  0  0
   -0.1885    1.4367    0.0000 C   0  0  0  0  0  0  0  0  0  0  0  0
   -3.7609    2.6742    0.0000 C   0  0  0  0  0  0  0  0  0  0  0  0
    1.9549    1.0242    0.0000 C   0  0  0  0  0  0  0  0  0  0  0  0
    1.9549    0.1992    0.0000 O   0  0  0  0  0  0  0  0  0  0  0  0
    4.0983    1.4367    0.0000 C   0  0  0  0  0  0  0  0  0  0  0  0
    3.3838    1.0242    0.0000 C   0  0  0  0  0  0  0  0  0  0  0  0
    2.6694    1.4367    0.0000 N   0  0  0  0  0  0  0  0  0  0  0  0
    2.6694    2.2617    0.0000 C   0  0  0  0  0  0  0  0  0  0  0  0
    3.3838    2.6742    0.0000 C   0  0  0  0  0  0  0  0  0  0  0  0
    4.0983    2.2617    0.0000 O   0  0  0  0  0  0  0  0  0  0  0  0
  1  2  2  0  0  0  0
  1  8  1  0  0  0  0
  1  7  1  0  0  0  0
  2  3  1  0  0  0  0
  2  4  1  0  0  0  0
  4 15  1  0  0  0  0
  4  5  2  0  0  0  0
  5  6  1  0  0  0  0
  6  7  2  0  0  0  0
  8 14  2  0  0  0  0
  8  9  1  0  0  0  0
 10  9  2  0  0  0  0
 10 11  1  0  0  0  0
 10 29  1  0  0  0  0
 11 13  1  0  0  0  0
 11 12  2  0  0  0  0
 35 13  1  0  0  0  0
 14 13  1  0  0  0  0
 16 15  1  0  0  0  0
 16 18  1  0  0  0  0
 16 17  2  0  0  0  0
 18 19  2  0  0  0  0
 18 23  1  0  0  0  0
 19 20  1  0  0  0  0
 20 21  2  0  0  0  0
 21 24  1  0  0  0  0
 21 22  1  0  0  0  0
 22 23  2  0  0  0  0
 24 26  1  0  0  0  0
 24 27  1  0  0  0  0
 24 25  1  0  0  0  0
 28 29  1  0  0  0  0
 28 30  2  0  0  0  0
 28 34  1  0  0  0  0
 30 31  1  0  0  0  0
 31 32  2  0  0  0  0
 32 33  1  0  0  0  0
 32 36  1  0  0  0  0
 33 34  2  0  0  0  0
 36 37  2  0  0  0  0
 36 40  1  0  0  0  0
 38 39  1  0  0  0  0
 38 43  1  0  0  0  0
 39 40  1  0  0  0  0
 41 40  1  0  0  0  0
 41 42  1  0  0  0  0
 42 43  1  0  0  0  0
M  END