
  SciTegic05071317032D

 42 41  0  0  0  0            999 V2000
   17.9237  -28.7126    0.0000 C   0  0
   17.9225  -29.5400    0.0000 C   0  0
   18.6373  -29.9529    0.0000 C   0  0
   19.3538  -29.5396    0.0000 C   0  0
   19.3510  -28.7090    0.0000 C   0  0
   18.6355  -28.2998    0.0000 C   0  0
   20.0638  -28.2938    0.0000 O   0  0
   20.7799  -28.7037    0.0000 C   0  0
   21.4928  -28.2884    0.0000 C   0  0
   22.2088  -28.6982    0.0000 C   0  0
   22.9217  -28.2831    0.0000 C   0  0
   23.6378  -28.6929    0.0000 C   0  0
   24.3506  -28.2776    0.0000 C   0  0
   25.0667  -28.6875    0.0000 C   0  0
   25.7796  -28.2723    0.0000 C   0  0
   26.4956  -28.6821    0.0000 C   0  0
   27.2085  -28.2669    0.0000 N   0  0
   27.9244  -28.6789    0.0000 C   0  0
   28.6351  -28.2672    0.0000 C   0  0
   28.6363  -27.4419    0.0000 N   0  0
   27.9204  -27.0299    0.0000 C   0  0
   27.2034  -27.4432    0.0000 C   0  0
   29.3508  -27.0294    0.0000 C   0  0
   30.0653  -27.4419    0.0000 C   0  0
   30.7797  -27.0294    0.0000 C   0  0
   31.4942  -27.4419    0.0000 C   0  0
   32.2087  -27.0294    0.0000 N   0  0
   32.2087  -26.2044    0.0000 C   0  0
   32.9231  -27.4419    0.0000 C   0  0
   32.9231  -28.2669    0.0000 C   0  0
   33.6376  -28.6794    0.0000 C   0  0
   33.6376  -29.5044    0.0000 C   0  0
   32.9231  -29.9170    0.0000 C   0  0
   32.2087  -29.5044    0.0000 C   0  0
   32.2116  -28.6784    0.0000 C   0  0
   31.4979  -28.2660    0.0000 C   0  0
   30.7824  -28.6785    0.0000 C   0  0
   30.7851  -29.5079    0.0000 C   0  0
   31.4993  -29.9165    0.0000 C   0  0
   26.7968  -30.6679    0.0000 Cl  0  0
   28.3446  -30.4071    0.0000 Cl  0  0
   28.5804  -31.7036    0.0000 Cl  0  0
  1  2  2  0
  2  3  1  0
  3  4  2  0
  4  5  1  0
  5  6  2  0
  6  1  1  0
  5  7  1  0
  7  8  1  0
  8  9  1  0
  9 10  1  0
 10 11  1  0
 11 12  1  0
 12 13  1  0
 13 14  1  0
 14 15  1  0
 15 16  1  0
 16 17  1  0
 17 18  1  0
 17 22  1  0
 18 19  1  0
 19 20  1  0
 20 21  1  0
 21 22  1  0
 20 23  1  0
 23 24  1  0
 24 25  1  0
 25 26  1  0
 26 27  1  0
 27 28  1  0
 27 29  1  0
 29 30  1  0
 30 31  1  0
 31 32  1  0
 32 33  1  0
 33 34  1  0
 34 35  2  0
 35 36  1  0
 36 37  2  0
 37 38  1  0
 38 39  2  0
 39 34  1  0
M  END