
          11280715342D 1   1.00000     0.00000     0

 15 16  0     0  0            999 V2000
   -2.8708    1.2833    0.0000 C   0  0  0  0  0  0           0  0  0
   -2.5333    0.5208    0.0000 N   0  0  3  0  0  0           0  0  0
   -3.6208    0.9458    0.0000 C   0  0  0  0  0  0           0  0  0
   -3.2833    0.1833    0.0000 C   0  0  3  0  0  0           0  0  0
   -1.1000    0.3708    0.0000 C   0  0  0  0  0  0           0  0  0
   -0.3458    0.7083    0.0000 C   0  0  0  0  0  0           0  0  0
    1.0792    0.5583    0.0000 N   0  0  3  0  0  0           0  0  0
   -2.5750    2.0583    0.0000 O   0  0  0  0  0  0           0  0  0
   -1.8583    0.0333    0.0000 C   0  0  0  0  0  0           0  0  0
    0.4125    1.0458    0.0000 C   0  0  0  0  0  0           0  0  0
   -3.5833   -0.5917    0.0000 C   0  0  0  0  0  0           0  0  0
    1.8667    0.8125    0.0000 C   0  0  0  0  0  0           0  0  0
    1.0792   -0.2667    0.0000 C   0  0  0  0  0  0           0  0  0
    1.8667   -0.5167    0.0000 C   0  0  0  0  0  0           0  0  0
    2.3500    0.1458    0.0000 C   0  0  0  0  0  0           0  0  0
  2  1  1  0     0  0
  3  1  1  0     0  0
  4  3  1  0     0  0
  5  9  1  0     0  0
  6  5  3  0     0  0
  7 10  1  0     0  0
  8  1  2  0     0  0
  9  2  1  0     0  0
 10  6  1  0     0  0
 11  4  1  0     0  0
 12  7  1  0     0  0
 13  7  1  0     0  0
 14 13  1  0     0  0
 15 12  1  0     0  0
  2  4  1  0     0  0
 15 14  1  0     0  0
M  END