
          02060813482D 1   1.00000     0.00000     0

 29 32  0     0  0            999 V2000
   -3.1598   -4.7625    0.0000 C   0  0  0  0  0  0           0  0  0
   -3.1609   -5.5898    0.0000 C   0  0  0  0  0  0           0  0  0
   -2.4461   -6.0027    0.0000 C   0  0  0  0  0  0           0  0  0
   -1.7297   -5.5894    0.0000 C   0  0  0  0  0  0           0  0  0
   -1.7325   -4.7588    0.0000 C   0  0  0  0  0  0           0  0  0
   -2.4479   -4.3497    0.0000 C   0  0  0  0  0  0           0  0  0
   -1.0196   -4.3436    0.0000 O   0  0  0  0  0  0           0  0  0
   -1.0145   -6.0007    0.0000 C   0  0  0  0  0  0           0  0  0
   -1.0181   -6.8261    0.0000 C   0  0  0  0  0  0           0  0  0
   -0.3039   -7.2374    0.0000 C   0  0  0  0  0  0           0  0  0
    0.4109   -6.8237    0.0000 C   0  0  0  0  0  0           0  0  0
    0.4070   -5.9944    0.0000 C   0  0  0  0  0  0           0  0  0
   -0.3079   -5.5869    0.0000 N   0  0  0  0  0  0           0  0  0
    1.1193   -5.5783    0.0000 O   0  0  0  0  0  0           0  0  0
    1.1266   -7.2341    0.0000 C   0  0  0  0  0  0           0  0  0
    1.8375   -7.6458    0.0000 N   0  0  0  0  0  0           0  0  0
   -0.3030   -8.0624    0.0000 C   0  0  0  0  0  0           0  0  0
   -1.0164   -8.4707    0.0000 C   0  0  0  0  0  0           0  0  0
   -1.0159   -9.2950    0.0000 C   0  0  0  0  0  0           0  0  0
   -0.3004   -9.7075    0.0000 C   0  0  0  0  0  0           0  0  0
    0.4160   -9.2898    0.0000 C   0  0  0  0  0  0           0  0  0
    0.4119   -8.4669    0.0000 C   0  0  0  0  0  0           0  0  0
   -3.8762   -6.0025    0.0000 C   0  0  3  0  0  0           0  0  0
    1.1236   -8.0496    0.0000 Cl  0  0  0  0  0  0           0  0  0
   -1.7301   -9.7079    0.0000 Cl  0  0  0  0  0  0           0  0  0
   -4.5422   -5.5143    0.0000 C   0  0  0  0  0  0           0  0  0
   -5.2128   -5.9949    0.0000 C   0  0  0  0  0  0           0  0  0
   -4.9629   -6.7812    0.0000 C   0  0  0  0  0  0           0  0  0
   -4.1380   -6.7865    0.0000 C   0  0  0  0  0  0           0  0  0
 12 14  2  0     0  0
  5  7  1  0     0  0
 11 15  1  0     0  0
  3  4  2  0     0  0
 15 16  3  0     0  0
  4  8  1  0     0  0
 10 17  1  0     0  0
 17 18  2  0     0  0
  8  9  2  0     0  0
 18 19  1  0     0  0
  4  5  1  0     0  0
 19 20  2  0     0  0
  9 10  1  0     0  0
 20 21  1  0     0  0
  2  3  1  0     0  0
 21 22  2  0     0  0
 22 17  1  0     0  0
 10 11  2  0     0  0
  2 23  1  0     0  0
  5  6  2  0     0  0
 22 24  1  0     0  0
 11 12  1  0     0  0
 19 25  1  0     0  0
 23 26  1  0     0  0
  6  1  1  0     0  0
 12 13  1  0     0  0
 13  8  1  0     0  0
  1  2  2  0     0  0
 26 27  1  0     0  0
 27 28  1  0     0  0
 28 29  1  0     0  0
 29 23  1  0     0  0
M  END