
          11280715132D 1   1.00000     0.00000     0

 38 42  0     0  0            999 V2000
    7.0875   -2.4917    0.0000 C   0  0  0  0  0  0           0  0  0
    7.8042   -1.2542    0.0000 C   0  0  0  0  0  0           0  0  0
    7.8167   -2.8250    0.0000 C   0  0  0  0  0  0           0  0  0
    6.7792   -3.6250    0.0000 N   0  0  0  0  0  0           0  0  0
    7.0917   -1.6667    0.0000 C   0  0  0  0  0  0           0  0  0
    7.6042   -3.6250    0.0000 N   0  0  3  0  0  0           0  0  0
    2.2125   -0.6542    0.0000 C   0  0  0  0  0  0           0  0  0
    6.3750   -2.9125    0.0000 C   0  0  0  0  0  0           0  0  0
    7.8000   -0.4292    0.0000 C   0  0  0  0  0  0           0  0  0
    8.5167   -2.4917    0.0000 N   0  0  0  0  0  0           0  0  0
    2.2125   -1.4875    0.0000 C   0  0  0  0  0  0           0  0  0
    2.9292   -0.2417    0.0000 C   0  0  0  0  0  0           0  0  0
    2.9250   -1.8917    0.0000 N   0  0  3  0  0  0           0  0  0
    8.5167   -1.6667    0.0000 C   0  0  0  0  0  0           0  0  0
    3.7375   -0.4667    0.0000 N   0  0  0  0  0  0           0  0  0
    4.3667   -2.6875    0.0000 N   0  0  3  0  0  0           0  0  0
    1.4917   -1.9000    0.0000 C   0  0  0  0  0  0           0  0  0
    8.5167   -0.0167    0.0000 N   0  0  3  0  0  0           0  0  0
    1.4917   -0.2417    0.0000 C   0  0  0  0  0  0           0  0  0
    2.9000    0.5833    0.0000 O   0  0  0  0  0  0           0  0  0
    7.0875   -0.0167    0.0000 O   0  0  0  0  0  0           0  0  0
    4.1875    0.2083    0.0000 C   0  0  0  0  0  0           0  0  0
    2.9375   -2.7167    0.0000 C   0  0  0  0  0  0           0  0  0
    3.6292   -1.4667    0.0000 C   0  0  0  0  0  0           0  0  0
    6.3792   -1.2542    0.0000 N   0  0  0  0  0  0           0  0  0
    3.6750    0.8583    0.0000 C   0  0  0  0  0  0           0  0  0
    4.3500   -1.8667    0.0000 C   0  0  0  0  0  0           0  0  0
    3.6625   -3.1167    0.0000 C   0  0  0  0  0  0           0  0  0
    0.7792   -0.6625    0.0000 C   0  0  0  0  0  0           0  0  0
    0.7792   -1.4875    0.0000 C   0  0  0  0  0  0           0  0  0
    8.1042   -4.2750    0.0000 C   0  0  0  0  0  0           0  0  0
    5.6542   -3.3167    0.0000 C   0  0  0  0  0  0           0  0  0
    0.0667   -0.2500    0.0000 F   0  0  0  0  0  0           0  0  0
    5.0917   -3.0875    0.0000 C   0  0  0  0  0  0           0  0  0
    5.6542   -2.5000    0.0000 C   0  0  0  0  0  0           0  0  0
    5.6667   -1.6750    0.0000 C   0  0  0  0  0  0           0  0  0
    9.2292   -0.4250    0.0000 C   0  0  0  0  0  0           0  0  0
    8.5125    0.8083    0.0000 C   0  0  0  0  0  0           0  0  0
  2  5  1  0     0  0
  3  1  1  0     0  0
  4  8  2  0     0  0
  5  1  2  0     0  0
  6  3  1  0     0  0
  7 11  1  0     0  0
  8  1  1  0     0  0
  9  2  1  0     0  0
 10  3  2  0     0  0
 11 13  1  0     0  0
 12  7  1  0     0  0
 13 23  1  0     0  0
 14  2  2  0     0  0
 15 12  2  0     0  0
 16 34  1  0     0  0
 17 11  2  0     0  0
 18  9  1  0     0  0
 19  7  2  0     0  0
 20 12  1  0     0  0
 21  9  2  0     0  0
 22 15  1  0     0  0
 23 28  1  0     0  0
 24 27  1  0     0  0
 25  5  1  0     0  0
 26 20  1  0     0  0
 27 16  1  0     0  0
 28 16  1  0     0  0
 29 30  2  0     0  0
 30 17  1  0     0  0
 31  6  1  0     0  0
 32  8  1  0     0  0
 33 29  1  0     0  0
 34 35  1  0     0  0
 35 36  1  0     0  0
 36 25  1  0     0  0
 37 18  1  0     0  0
 38 18  1  0     0  0
  6  4  1  0     0  0
 14 10  1  0     0  0
 13 24  1  0     0  0
 29 19  1  0     0  0
 22 26  2  0     0  0
M  END