
          11280715262D 1   1.00000     0.00000     0

 25 29  0     0  0            999 V2000
    7.5167   -2.9292    0.0000 N   0  0  0  0  0  0           0  0  0
    7.5167   -1.6042    0.0000 S   0  0  0  0  0  0           0  0  0
    8.0042   -2.2667    0.0000 C   0  0  0  0  0  0           0  0  0
    6.7417   -1.8542    0.0000 C   0  0  0  0  0  0           0  0  0
    2.4542   -2.6917    0.0000 C   0  0  3  0  0  0           0  0  0
    6.7417   -2.6792    0.0000 C   0  0  0  0  0  0           0  0  0
    6.0292   -1.4417    0.0000 C   0  0  0  0  0  0           0  0  0
    3.8792   -1.8542    0.0000 C   0  0  0  0  0  0           0  0  0
    4.5917   -1.4417    0.0000 N   0  0  0  0  0  0           0  0  0
    1.7042   -3.9917    0.0000 C   0  0  3  0  0  0           0  0  0
    3.1792   -3.9292    0.0000 C   0  0  3  0  0  0           0  0  0
    2.0042   -4.3667    0.0000 C   0  0  3  0  0  0           0  0  0
    5.3042   -1.8542    0.0000 C   0  0  0  0  0  0           0  0  0
    2.0042   -3.3167    0.0000 C   0  0  0  0  0  0           0  0  0
    1.7042   -3.0917    0.0000 C   0  0  0  0  0  0           0  0  0
    3.1792   -3.1042    0.0000 C   0  0  0  0  0  0           0  0  0
    3.8917   -2.6792    0.0000 O   0  0  0  0  0  0           0  0  0
    6.0292   -3.0917    0.0000 C   0  0  0  0  0  0           0  0  0
    1.3542   -4.6417    0.0000 C   0  0  0  0  0  0           0  0  0
    2.4792   -4.2917    0.0000 C   0  0  0  0  0  0           0  0  0
    2.8167   -4.6417    0.0000 C   0  0  0  0  0  0           0  0  0
    2.4542   -1.8667    0.0000 C   0  0  0  0  0  0           0  0  0
    3.1667   -1.4417    0.0000 C   0  0  0  0  0  0           0  0  0
    5.3042   -2.6792    0.0000 C   0  0  0  0  0  0           0  0  0
    8.8292   -2.2667    0.0000 C   0  0  0  0  0  0           0  0  0
  2  3  1  0     0  0
  3  1  2  0     0  0
  4  6  2  0     0  0
  5 22  1  0     0  0
  6  1  1  0     0  0
  7  4  1  0     0  0
  8  9  1  0     0  0
  9 13  1  0     0  0
 10 15  1  0     0  0
 11 16  1  0     0  0
 12 14  1  0     0  0
 13 24  1  0     0  0
 14  5  1  0     0  0
 15  5  1  0     0  0
 16  5  1  0     0  0
 17  8  2  0     0  0
 18  6  1  0     0  0
 19 10  1  0     0  0
 20 11  1  0     0  0
 21 11  1  0     0  0
 22 23  1  0     0  0
 23  8  1  0     0  0
 24 18  2  0     0  0
 25  3  1  0     0  0
  4  2  1  0     0  0
 13  7  2  0     0  0
 21 12  1  0     0  0
 20 10  1  0     0  0
 19 12  1  0     0  0
M  END