
          11280715202D 1   1.00000     0.00000     0

 29 30  0     0  0            999 V2000
    8.2167   -2.4417    0.0000 C   0  0  3  0  0  0           0  0  0
    1.4500   -3.1792    0.0000 N   0  0  0  0  0  0           0  0  0
    8.0500   -3.2542    0.0000 C   0  0  0  0  0  0           0  0  0
    8.7667   -1.8375    0.0000 C   0  0  0  0  0  0           0  0  0
    7.9667   -1.6667    0.0000 C   0  0  0  0  0  0           0  0  0
    1.0375   -4.4542    0.0000 N   0  0  0  0  0  0           0  0  0
    0.7792   -3.6667    0.0000 C   0  0  0  0  0  0           0  0  0
    2.1167   -3.6667    0.0000 C   0  0  0  0  0  0           0  0  0
   11.6917   -2.0417    0.0000 C   0  0  0  0  0  0           0  0  0
   11.6792   -3.6917    0.0000 C   0  0  0  0  0  0           0  0  0
   10.9792   -2.4542    0.0000 C   0  0  0  0  0  0           0  0  0
   10.9750   -3.2792    0.0000 C   0  0  0  0  0  0           0  0  0
    8.6625   -3.8042    0.0000 N   0  0  0  0  0  0           0  0  0
    7.2667   -3.5042    0.0000 C   0  0  0  0  0  0           0  0  0
    1.8625   -4.4542    0.0000 C   0  0  0  0  0  0           0  0  0
   11.6792   -4.5167    0.0000 O   0  0  0  0  0  0           0  0  0
   11.6917   -1.2167    0.0000 O   0  0  0  0  0  0           0  0  0
    6.6417   -2.9542    0.0000 C   0  0  0  0  0  0           0  0  0
    7.0917   -4.3167    0.0000 C   0  0  0  0  0  0           0  0  0
    5.6917   -4.0167    0.0000 C   0  0  0  0  0  0           0  0  0
   12.4042   -2.4542    0.0000 O   0  0  0  0  0  0           0  0  0
   12.4000   -3.2792    0.0000 O   0  0  0  0  0  0           0  0  0
    9.4417   -3.5500    0.0000 O   0  0  0  0  0  0           0  0  0
    6.3042   -4.5667    0.0000 C   0  0  0  0  0  0           0  0  0
    5.8667   -3.2125    0.0000 C   0  0  0  0  0  0           0  0  0
    4.9125   -4.2667    0.0000 O   0  0  0  0  0  0           0  0  0
    2.9042   -3.4167    0.0000 C   0  0  0  0  0  0           0  0  0
    4.3000   -3.7167    0.0000 C   0  0  0  0  0  0           0  0  0
    3.5125   -3.9667    0.0000 C   0  0  0  0  0  0           0  0  0
  2  8  1  0     0  0
  3  1  1  0     0  0
  4  1  1  0     0  0
  5  1  1  0     0  0
  6 15  1  0     0  0
  7  2  2  0     0  0
  8 27  1  0     0  0
 10 12  1  0     0  0
 11  9  1  0     0  0
 12 11  2  0     0  0
 13  3  2  0     0  0
 14  3  1  0     0  0
 15  8  2  0     0  0
 16 10  2  0     0  0
 17  9  2  0     0  0
 18 14  1  0     0  0
 19 14  2  0     0  0
 20 24  2  0     0  0
 21  9  1  0     0  0
 22 10  1  0     0  0
 23 13  1  0     0  0
 24 19  1  0     0  0
 25 18  2  0     0  0
 26 20  1  0     0  0
 27 29  1  0     0  0
 28 26  1  0     0  0
 29 28  1  0     0  0
  4  5  1  0     0  0
 20 25  1  0     0  0
  6  7  1  0     0  0
M  END