
  Mrv0541 04051115152D          

 12 13  0  0  0  0            999 V2000
   -1.9613   -0.7028    0.0000 O   0  0  0  0  0  0  0  0  0  0  0  0
   -1.9613    0.7261    0.0000 O   0  0  0  0  0  0  0  0  0  0  0  0
    1.9747    0.4242    0.0000 C   0  0  0  0  0  0  0  0  0  0  0  0
    1.9747   -0.4008    0.0000 C   0  0  0  0  0  0  0  0  0  0  0  0
    1.2602    0.8367    0.0000 C   0  0  0  0  0  0  0  0  0  0  0  0
    1.2602   -0.8133    0.0000 C   0  0  0  0  0  0  0  0  0  0  0  0
   -0.2389    0.6791    0.0000 C   0  0  0  0  0  0  0  0  0  0  0  0
   -0.2389   -0.6558    0.0000 O   0  0  0  0  0  0  0  0  0  0  0  0
   -1.5488    0.0117    0.0000 C   0  0  0  0  0  0  0  0  0  0  0  0
   -0.7238    0.0117    0.0000 C   0  0  0  0  0  0  0  0  0  0  0  0
    0.5457    0.4242    0.0000 C   0  0  0  0  0  0  0  0  0  0  0  0
    0.5457   -0.4008    0.0000 C   0  0  0  0  0  0  0  0  0  0  0  0
  9  1  1  0  0  0  0
  9  2  2  0  0  0  0
  3  4  2  0  0  0  0
  3  5  1  0  0  0  0
  4  6  1  0  0  0  0
  5 11  2  0  0  0  0
  6 12  2  0  0  0  0
  7 10  2  0  0  0  0
  7 11  1  0  0  0  0
 10  8  1  0  0  0  0
 12  8  1  0  0  0  0
  9 10  1  0  0  0  0
 11 12  1  0  0  0  0
M  END