
  Mrv0541 04051115152D          

 40 41  0  0  0  0            999 V2000
   -1.5243   -2.3211    0.0000 O   0  0  0  0  0  0  0  0  0  0  0  0
    2.9153   -1.1423    0.0000 O   0  0  0  0  0  0  0  0  0  0  0  0
    2.2494   -0.6553    0.0000 O   0  0  0  0  0  0  0  0  0  0  0  0
    1.6724    0.6519    0.0000 O   0  0  0  0  0  0  0  0  0  0  0  0
   -0.4013    1.2711    0.0000 O   0  0  0  0  0  0  0  0  0  0  0  0
    0.6867    3.1219    0.0000 O   0  0  0  0  0  0  0  0  0  0  0  0
   -3.3442    0.7804    0.0000 O   0  0  0  0  0  0  0  0  0  0  0  0
   -3.5219   -0.8600    0.0000 O   0  0  0  0  0  0  0  0  0  0  0  0
   -0.5030    0.4727    0.0000 O   0  0  0  0  0  0  0  0  0  0  0  0
   -0.6807   -1.1677    0.0000 N   0  0  0  0  0  0  0  0  0  0  0  0
    3.0930    0.4981    0.0000 N   0  0  0  0  0  0  0  0  0  0  0  0
   -0.7695   -1.9879    0.0000 C   0  0  0  0  0  0  0  0  0  0  0  0
   -0.1036   -2.4750    0.0000 C   0  0  0  0  0  0  0  0  0  0  0  0
    0.6511   -2.1418    0.0000 C   0  0  0  0  0  0  0  0  0  0  0  0
    1.3170   -2.6289    0.0000 C   0  0  0  0  0  0  0  0  0  0  0  0
    2.0717   -2.2957    0.0000 C   0  0  0  0  0  0  0  0  0  0  0  0
    2.1606   -1.4755    0.0000 C   0  0  1  0  0  0  0  0  0  0  0  0
    1.4947   -0.9885    0.0000 C   0  0  2  0  0  0  0  0  0  0  0  0
    1.5835   -0.1683    0.0000 C   0  0  0  0  0  0  0  0  0  0  0  0
    0.9176    0.3188    0.0000 C   0  0  0  0  0  0  0  0  0  0  0  0
    1.0065    1.1390    0.0000 C   0  0  1  0  0  0  0  0  0  0  0  0
    0.3016    1.7031    0.0000 C   0  0  2  0  0  0  0  0  0  0  0  0
    0.1327    2.5106    0.0000 C   0  0  2  0  0  0  0  0  0  0  0  0
   -0.6875    2.5995    0.0000 C   0  0  0  0  0  0  0  0  0  0  0  0
   -1.0255    1.8468    0.0000 C   0  0  1  0  0  0  0  0  0  0  0  0
   -1.8348    1.4468    0.0000 C   0  0  0  0  0  0  0  0  0  0  0  0
   -1.9236    0.6265    0.0000 C   0  0  0  0  0  0  0  0  0  0  0  0
   -2.6784    0.2934    0.0000 C   0  0  0  0  0  0  0  0  0  0  0  0
   -2.7672   -0.5268    0.0000 C   0  0  0  0  0  0  0  0  0  0  0  0
   -2.1013   -1.0139    0.0000 C   0  0  0  0  0  0  0  0  0  0  0  0
   -1.3466   -0.6807    0.0000 C   0  0  0  0  0  0  0  0  0  0  0  0
   -1.2577    0.1395    0.0000 C   0  0  0  0  0  0  0  0  0  0  0  0
   -0.1925   -3.2952    0.0000 C   0  0  0  0  0  0  0  0  0  0  0  0
    3.5812   -1.6294    0.0000 C   0  0  0  0  0  0  0  0  0  0  0  0
    2.3383    0.1649    0.0000 C   0  0  0  0  0  0  0  0  0  0  0  0
    1.9983    0.5449    0.0000 C   0  0  0  0  0  0  0  0  0  0  0  0
    1.7683    1.4557    0.0000 C   0  0  0  0  0  0  0  0  0  0  0  0
    0.4342    3.9074    0.0000 C   0  0  0  0  0  0  0  0  0  0  0  0
   -0.6374    1.1188    0.0000 C   0  0  0  0  0  0  0  0  0  0  0  0
   -4.0990    0.4473    0.0000 C   0  0  0  0  0  0  0  0  0  0  0  0
 12  1  2  0  0  0  0
 17  2  1  1  0  0  0
 34  2  1  0  0  0  0
 18  3  1  1  0  0  0
 35  3  1  0  0  0  0
 35  4  2  0  0  0  0
 22  5  1  1  0  0  0
 23  6  1  6  0  0  0
 38  6  1  0  0  0  0
 28  7  1  0  0  0  0
 40  7  1  0  0  0  0
 29  8  2  0  0  0  0
 32  9  2  0  0  0  0
 12 10  1  0  0  0  0
 31 10  1  0  0  0  0
 35 11  1  0  0  0  0
 12 13  1  0  0  0  0
 13 14  2  0  0  0  0
 13 33  1  0  0  0  0
 14 15  1  0  0  0  0
 15 16  2  0  0  0  0
 16 17  1  0  0  0  0
 17 18  1  0  0  0  0
 18 19  1  0  0  0  0
 19 20  2  0  0  0  0
 36 19  1  0  0  0  0
 21 20  1  0  0  0  0
 21 22  1  0  0  0  0
 21 37  1  1  0  0  0
 22 23  1  0  0  0  0
 23 24  1  0  0  0  0
 24 25  1  0  0  0  0
 25 26  1  0  0  0  0
 25 39  1  6  0  0  0
 26 27  1  0  0  0  0
 27 28  2  0  0  0  0
 27 32  1  0  0  0  0
 28 29  1  0  0  0  0
 29 30  1  0  0  0  0
 30 31  2  0  0  0  0
 31 32  1  0  0  0  0
M  END