
  SciTegic05061409512D

 14 15  0  0  0  0            999 V2000
   13.5252   -3.3899    0.0000 C   0  0
   13.5241   -4.2169    0.0000 C   0  0
   14.2385   -4.6295    0.0000 C   0  0
   14.2367   -2.9774    0.0000 C   0  0
   14.9518   -3.3863    0.0000 C   0  0
   14.9520   -4.2124    0.0000 C   0  0
   15.7377   -4.4674    0.0000 N   0  0
   16.2231   -3.7989    0.0000 C   0  0
   15.7365   -3.1315    0.0000 N   0  0
   16.1469   -2.4163    0.0000 C   0  0
   16.9715   -2.4142    0.0000 C   0  0
   17.3857   -3.1272    0.0000 C   0  0
   18.2103   -3.1249    0.0000 O   0  0
   16.9753   -3.8424    0.0000 O   0  0
  1  2  1  0
  2  3  2  0
  3  6  1  0
  5  4  1  0
  4  1  2  0
  5  6  2  0
  6  7  1  0
  7  8  2  0
  8  9  1  0
  9  5  1  0
  9 10  1  0
 10 11  1  0
 11 12  1  0
 12 13  1  0
 12 14  2  0
M  END