
  SciTegic04021211102D

 28 30  0  0  0  0            999 V2000
    7.8459   -0.1557    0.0000 C   0  0
    8.5618   -0.5661    0.0000 N   0  0
    9.2750   -0.1513    0.0000 C   0  0
    9.9908   -0.5616    0.0000 N   0  0
    9.2724    0.6738    0.0000 O   0  0
   10.6914    0.6765    0.0000 N   0  0
   10.7041   -0.1468    0.0000 C   0  0
   11.4909   -0.3892    0.0000 S   0  0
   11.9647    0.2843    0.0000 C   0  0
   11.4705    0.9428    0.0000 C   0  0
    7.8454    0.6689    0.0000 C   0  0
    7.1304    1.0791    0.0000 C   0  0
    6.4161    0.6643    0.0000 C   0  0
    6.4214   -0.1651    0.0000 C   0  0
    7.1370   -0.5716    0.0000 C   0  0
    5.7097   -0.5824    0.0000 F   0  0
    5.6998    1.0736    0.0000 Cl  0  0
   11.4766    1.7688    0.0000 C   0  0
   12.1939    2.1766    0.0000 C   0  0
   12.1993    3.0017    0.0000 O   0  0
   12.9166    3.4095    0.0000 C   0  0
   13.6284    2.9924    0.0000 C   0  0
   13.6203    2.1624    0.0000 C   0  0
   14.3312    1.7454    0.0000 C   0  0
   15.0494    2.1532    0.0000 C   0  0
   15.0522    2.9826    0.0000 C   0  0
   14.3406    3.3959    0.0000 C   0  0
   10.7651    2.1863    0.0000 N   0  0
 13 14  1  0
  3  4  1  0
 14 15  2  0
 15  1  1  0
 14 16  1  0
  3  5  2  0
 13 17  1  0
  7  8  1  0
 10 18  1  0
  8  9  1  0
 18 19  1  0
  9 10  2  0
 19 20  1  0
 10  6  1  0
 20 21  1  0
  4  7  1  0
 21 22  1  0
  1 11  2  0
 22 23  2  0
  6  7  2  0
 23 24  1  0
 11 12  1  0
 24 25  2  0
  2  3  1  0
 25 26  1  0
 12 13  2  0
 26 27  2  0
 27 22  1  0
  1  2  1  0
 18 28  1  0
M  END