
  SciTegic04191613082D

 36 39  0  0  0  0            999 V2000
    9.9944    5.5827    0.0000 C   0  0
    8.5244    5.2803    0.0000 C   0  0
    7.5257    6.3996    0.0000 C   0  0
    6.0571    6.0943    0.0000 C   0  0
    5.5870    4.6698    0.0000 C   0  0
    6.5858    3.5506    0.0000 C   0  0
    8.0544    3.8558    0.0000 C   0  0
   10.3724    6.7216    0.0000 O   0  0
   10.9920    4.4614    0.0000 N   0  0
   12.4621    4.7638    0.0000 S   0  0
   13.4597    3.6425    0.0000 C   0  0
   12.9877    2.2187    0.0000 C   0  0
   13.9848    1.0981    0.0000 C   0  0
   15.4538    1.4012    0.0000 C   0  0
   15.9258    2.8250    0.0000 C   0  0
   14.9287    3.9457    0.0000 C   0  0
   16.4537    0.2820    0.0000 O   0  0
   17.6286    0.5262    0.0000 C   0  0
   13.6072   -0.0410    0.0000 Cl  0  0
    3.6500    2.9355    0.0000 C   0  0
    2.1812    2.6271    0.0000 C   0  0
    4.4505    2.0415    0.0000 O   0  0
    4.1182    4.3614    0.0000 N   0  0
    1.7138   -1.2033    0.0000 S   0  0
    2.5889    0.0182    0.0000 C   0  0
    1.7138    1.2033    0.0000 N   0  0
    0.2917    0.7475    0.0000 C   0  0
    0.2917   -0.7475    0.0000 C   0  0
   -1.0028    1.5132    0.0000 C   0  0
   -2.3155    0.7475    0.0000 C   0  0
   -2.3155   -0.7475    0.0000 C   0  0
   -1.0028   -1.5132    0.0000 C   0  0
    3.7889    0.0269    0.0000 O   0  0
   -3.3560    1.3452    0.0000 Cl  0  0
   11.6649    5.6607    0.0000 O   0  0
   12.8400    5.9027    0.0000 O   0  0
  1  2  1  0
  2  3  1  0
  3  4  2  0
  4  5  1  0
  5  6  2  0
  6  7  1  0
  2  7  2  0
  1  8  2  0
  1  9  1  0
 11 12  1  0
 12 13  2  0
 13 14  1  0
 14 15  2  0
 15 16  1  0
 11 16  2  0
 17 18  1  0
 14 17  1  0
 13 19  1  0
 10 11  1  0
  9 10  1  0
 20 21  1  0
 20 22  2  0
 20 23  1  0
 24 25  1  0
 25 26  1  0
 26 27  1  0
 27 28  1  0
 24 28  1  0
 29 30  1  0
 30 31  2  0
 31 32  1  0
 28 32  2  0
 27 29  2  0
 25 33  2  0
 30 34  1  0
 21 26  1  0
  5 23  1  0
 10 35  2  0
 10 36  2  0
M  END