
  SciTegic05171617282D

 30 34  0  0  0  0            999 V2000
   -2.5905    3.5979    0.0000 O   0  0
   -3.6267    2.9927    0.0000 C   0  0
   -3.6187    1.4919    0.0000 N   0  0
   -2.3155    0.7475    0.0000 C   0  0
   -2.3155   -0.7475    0.0000 C   0  0
   -1.0028   -1.5132    0.0000 C   0  0
    0.2917   -0.7475    0.0000 C   0  0
    1.7138   -1.2033    0.0000 N   0  0
    2.5889    0.0182    0.0000 N   0  0
    1.7138    1.2033    0.0000 C   0  0
    2.1749    2.6315    0.0000 C   0  0
    1.2517    3.8078    0.0000 C   0  0
    1.8114    5.1995    0.0000 C   0  0
    3.2965    5.4106    0.0000 N   0  0
    4.2218    4.2301    0.0000 C   0  0
    3.6621    2.8384    0.0000 C   0  0
    0.2917    0.7475    0.0000 C   0  0
   -1.0028    1.5132    0.0000 C   0  0
   -4.9300    3.7369    0.0000 C   0  0
   -4.9402    5.2369    0.0000 C   0  0
   -6.2443    5.9781    0.0000 N   0  0
   -7.5383    5.2194    0.0000 C   0  0
   -7.5281    3.7194    0.0000 C   0  0
   -6.2240    2.9782    0.0000 C   0  0
   -8.8227    2.9603    0.0000 C   0  0
  -10.1281    3.6993    0.0000 C   0  0
  -11.4208    2.9385    0.0000 C   0  0
  -11.4083    1.4386    0.0000 C   0  0
  -10.1030    0.6994    0.0000 C   0  0
   -8.8103    1.4603    0.0000 C   0  0
  1  2  2  0
  2  3  1  0
  3  4  1  0
  4  5  2  0
  5  6  1  0
  6  7  2  0
  7  8  1  0
  8  9  1  0
  9 10  2  0
 10 11  1  0
 11 12  2  0
 12 13  1  0
 13 14  2  0
 14 15  1  0
 15 16  2  0
 11 16  1  0
 10 17  1  0
  7 17  1  0
 17 18  2  0
  4 18  1  0
  2 19  1  0
 19 20  1  0
 20 21  1  0
 21 22  1  0
 22 23  1  0
 23 24  1  0
 19 24  1  0
 23 25  1  0
 25 26  2  0
 26 27  1  0
 27 28  2  0
 28 29  1  0
 29 30  2  0
 25 30  1  0
M  END