
  SciTegic12231509382D

 40 43  0  0  0  0            999 V2000
    2.9831   -8.9048    0.0000 C   0  0
    3.6952   -8.4965    0.0000 C   0  0
    2.2710   -8.4965    0.0000 C   0  0  2  0  0  0
    2.2710   -7.6714    0.0000 C   0  0  1  0  0  0
    1.5604   -7.2611    0.0000 C   0  0
    0.8453   -7.6714    0.0000 C   0  0
    0.8453   -8.4965    0.0000 C   0  0  2  0  0  0
    1.5604   -8.9112    0.0000 C   0  0  1  0  0  0
    1.5616   -9.7363    0.0000 C   0  0
    0.1303   -8.9082    0.0000 O   0  0
    2.2669   -6.8464    0.0000 C   0  0
    2.9752   -8.0798    0.0000 H   0  0
    2.9831   -7.2547    0.0000 C   0  0  1  0  0  0
    3.6934   -7.6744    0.0000 C   0  0  1  0  0  0
    3.7084   -6.0273    0.0000 C   0  0
    2.9874   -6.4320    0.0000 C   0  0  1  0  0  0
    4.4186   -6.4471    0.0000 C   0  0  2  0  0  0
    4.4126   -7.2675    0.0000 C   0  0  2  0  0  0
    5.1911   -7.5268    0.0000 C   0  0
    5.6770   -6.8671    0.0000 C   0  0  1  0  0  0
    5.2003   -6.1993    0.0000 C   0  0
    5.6183   -5.4881    0.0000 C   0  0
    6.4434   -5.4945    0.0000 C   0  0
    6.8614   -4.7831    0.0000 O   0  0
    6.8503   -6.2121    0.0000 O   0  0
    5.2113   -4.7702    0.0000 C   0  0
    5.6293   -4.0590    0.0000 C   0  0
    5.2224   -3.3413    0.0000 C   0  0
    5.6404   -2.6300    0.0000 C   0  0
    5.2335   -1.9123    0.0000 C   0  0
    6.4655   -2.6364    0.0000 C   0  0
    4.4128   -5.6213    0.0000 H   0  0
    2.2766   -6.0132    0.0000 O   0  0
    3.6878   -6.8464    0.0000 C   0  0
    2.2669   -9.3216    0.0000 H   0  0
    4.4045   -8.0923    0.0000 C   0  0
    6.5021   -6.8732    0.0000 O   0  0
    6.9093   -7.5907    0.0000 C   0  0
    7.7342   -7.5968    0.0000 C   0  0
    6.4915   -8.3022    0.0000 O   0  0
 18 19  1  0
 19 20  1  0
 20 21  1  0
 21 17  1  0
  2 14  1  0
  8  9  1  6
  3  4  1  0
  7 10  1  6
 21 22  2  0
  4 11  1  1
 22 23  1  0
 23 24  1  0
 13 12  1  1
 23 25  2  0
 13 14  1  0
 22 26  1  0
 26 27  1  0
  4 13  1  0
 27 28  1  0
  3  1  1  0
 28 29  2  0
  1  2  1  0
 29 30  1  0
 13 16  1  0
 29 31  1  0
 14 18  1  0
 17 32  1  6
 17 15  1  0
 16 33  1  6
 15 16  1  0
 14 34  1  6
 17 18  1  0
  3 35  1  6
  3  8  1  0
 18 36  1  1
  4  5  1  0
 20 37  1  1
 37 38  1  0
  5  6  1  0
 38 39  1  0
  6  7  1  0
 38 40  2  0
  7  8  1  0
M  END