
  CDK    9/16/09,10:1

 36 37  0  0  0  0  0  0  0  0999 V2000
   12.6500   -8.1750    0.0000 C   0  0  0  0  0  0  0  0  0  0  0  0
   12.6500   -9.0000    0.0000 C   0  0  0  0  0  0  0  0  0  0  0  0
   13.3620   -9.4083    0.0000 C   0  0  0  0  0  0  0  0  0  0  0  0
   14.0740   -9.0000    0.0000 C   0  0  0  0  0  0  0  0  0  0  0  0
   14.0740   -8.1750    0.0000 C   0  0  0  0  0  0  0  0  0  0  0  0
   13.3620   -7.7583    0.0000 C   0  0  0  0  0  0  0  0  0  0  0  0
   13.3620   -6.9333    0.0000 O   0  0  0  0  0  0  0  0  0  0  0  0
   14.7879   -9.4135    0.0000 N   0  0  0  0  0  0  0  0  0  0  0  0
   15.5030   -9.0021    0.0000 C   0  0  0  0  0  0  0  0  0  0  0  0
   16.2168   -9.4156    0.0000 C   0  0  0  0  0  0  0  0  0  0  0  0
   15.5042   -8.1771    0.0000 O   0  0  0  0  0  0  0  0  0  0  0  0
   16.2157  -10.2406    0.0000 C   0  0  0  0  0  0  0  0  0  0  0  0
   16.9295  -10.6541    0.0000 C   0  0  0  0  0  0  0  0  0  0  0  0
   16.9283  -11.4791    0.0000 C   0  0  0  0  0  0  0  0  0  0  0  0
   16.2133  -11.8906    0.0000 C   0  0  0  0  0  0  0  0  0  0  0  0
   15.9958  -12.6833    0.0000 C   0  0  0  0  0  0  0  0  0  0  0  0
   15.5606  -11.3860    0.0000 O   0  0  0  0  0  0  0  0  0  0  0  0
   15.1708  -12.6833    0.0000 C   0  0  0  0  0  0  0  0  0  0  0  0
   16.4961  -13.3393    0.0000 O   0  0  0  0  0  0  0  0  0  0  0  0
   16.1782  -14.1006    0.0000 C   0  0  0  0  0  0  0  0  0  0  0  0
   16.6785  -14.7566    0.0000 N   0  0  0  0  0  0  0  0  0  0  0  0
   15.3599  -14.2059    0.0000 O   0  0  0  0  0  0  0  0  0  0  0  0
   14.5833  -13.2667    0.0000 C   0  0  0  0  0  0  0  0  0  0  0  0
   15.1667  -11.8583    0.0000 C   0  0  0  0  0  0  0  0  0  0  0  0
   13.3458  -12.7375    0.0000 C   0  0  0  0  0  0  0  0  0  0  0  0
   13.3417  -11.9125    0.0000 C   0  0  0  0  0  0  0  0  0  0  0  0
   12.6251  -11.5036    0.0000 C   0  0  0  0  0  0  0  0  0  0  0  0
   14.0540  -11.4964    0.0000 O   0  0  0  0  0  0  0  0  0  0  0  0
   12.6208  -10.6750    0.0000 C   0  0  0  0  0  0  0  0  0  0  0  0
   11.9128  -11.9198    0.0000 O   0  0  0  0  0  0  0  0  0  0  0  0
   11.1962  -11.5109    0.0000 C   0  0  0  0  0  0  0  0  0  0  0  0
   11.9042  -10.2662    0.0000 C   0  0  0  0  0  0  0  0  0  0  0  0
   11.9000   -9.4412    0.0000 C   0  0  0  0  0  0  0  0  0  0  0  0
   11.1919  -10.6824    0.0000 C   0  0  0  0  0  0  0  0  0  0  0  0
   12.6584  -13.1937    0.0000 C   0  0  0  0  0  0  0  0  0  0  0  0
   15.5542  -10.5583    0.0000 C   0  0  0  0  0  0  0  0  0  0  0  0
 16 18  1  0  0  0  0 
  8  9  1  0  0  0  0 
 16 19  1  1  0  0  0 
  2  3  1  0  0  0  0 
 19 20  1  0  0  0  0 
  9 10  1  0  0  0  0 
 20 21  1  0  0  0  0 
  3  4  2  0  0  0  0 
 20 22  2  0  0  0  0 
  9 11  2  0  0  0  0 
 18 23  2  0  0  0  0 
  4  5  1  0  0  0  0 
 18 24  1  0  0  0  0 
 10 12  2  0  0  0  0 
 23 25  1  0  0  0  0 
  5  6  2  0  0  0  0 
 25 26  1  0  0  0  0 
 12 13  1  0  0  0  0 
 26 27  1  0  0  0  0 
 26 28  1  6  0  0  0 
 13 14  1  0  0  0  0 
 27 29  1  0  0  0  0 
  6  7  1  0  0  0  0 
 27 30  1  1  0  0  0 
 14 15  1  0  0  0  0 
 30 31  1  0  0  0  0 
  1  2  2  0  0  0  0 
 29 32  1  0  0  0  0 
 15 16  1  0  0  0  0 
 32 33  1  0  0  0  0 
  4  8  1  0  0  0  0 
 32 34  1  6  0  0  0 
  2 33  1  0  0  0  0 
 15 17  1  1  0  0  0 
 25 35  1  6  0  0  0 
  1  6  1  0  0  0  0 
 17 36  1  0  0  0  0 
M  END