
  SciTegic01161211252D

 15 14  0  0  0  0            999 V2000
    3.0875   -2.7417    0.0000 P   0  0
    3.7542   -3.1292    0.0000 C   0  0
    7.0792   -2.7250    0.0000 P   0  0
    2.0625   -3.2042    0.0000 O   0  0
    2.1792   -2.3125    0.0000 O   0  0
    3.0792   -1.9542    0.0000 O   0  0
    7.7625   -2.2667    0.0000 O   0  0
    7.8875   -3.1500    0.0000 O   0  0
    7.0750   -1.9417    0.0000 O   0  0
    3.3667   -3.7875    0.0000 F   0  0
    4.1375   -3.7875    0.0000 F   0  0
    6.4125   -3.1125    0.0000 C   0  0
    4.4167   -2.7250    0.0000 C   0  0
    5.7500   -2.7250    0.0000 C   0  0
    5.0875   -3.1125    0.0000 C   0  0
  2  1  1  0
  3 12  1  0
  4  1  1  0
  5  1  1  0
  6  1  2  0
  7  3  1  0
  8  3  1  0
  9  3  2  0
 10  2  1  0
 11  2  1  0
 12 14  1  0
 13  2  1  0
 14 15  1  0
 15 13  1  0
M  END