
  SciTegic01161211252D

 41 42  0  0  0  0            999 V2000
   14.5542  -21.7931    0.0000 C   0  0  1  0  0  0
   14.5542  -22.6218    0.0000 C   0  0  2  0  0  0
   15.2660  -23.0319    0.0000 C   0  0  2  0  0  0
   15.9819  -22.6218    0.0000 C   0  0
   15.9819  -21.7931    0.0000 C   0  0  2  0  0  0
   15.2660  -21.3746    0.0000 O   0  0
   16.6936  -22.2096    0.0000 O   0  0
   16.3871  -21.0785    0.0000 C   0  0
   17.2157  -21.0671    0.0000 O   0  0
   15.9692  -20.3647    0.0000 O   0  5
   13.8369  -21.3841    0.0000 C   0  0  2  0  0  0
   13.1191  -21.7995    0.0000 C   0  0  1  0  0  0
   11.6919  -22.6354    0.0000 C   0  0
   10.9741  -23.0509    0.0000 C   0  0
   11.6882  -21.8067    0.0000 O   0  0
   10.2618  -22.6361    0.0000 C   0  0
    9.5448  -23.0505    0.0000 C   0  0
    9.5478  -23.8805    0.0000 C   0  0
   10.2727  -24.2893    0.0000 C   0  0
   10.9811  -23.8714    0.0000 C   0  0
   13.1191  -22.6249    0.0000 C   0  0
   13.8411  -23.8585    0.0000 C   0  0
   13.1265  -24.2724    0.0000 O   0  0
   14.5615  -24.2693    0.0000 C   0  0
   14.5329  -20.9690    0.0000 H   0  0
   16.6888  -23.0341    0.0000 C   0  0
   17.4005  -23.4504    0.0000 C   0  0
   17.3912  -24.2736    0.0000 C   0  0
   18.1021  -24.6900    0.0000 C   0  0
   18.1102  -23.0405    0.0000 C   0  0
    8.8365  -24.2976    0.0000 Cl  0  0
   18.8216  -23.4530    0.0000 C   0  0
   18.8162  -24.2791    0.0000 C   0  0
   18.1108  -22.2160    0.0000 Cl  0  0
   19.5373  -23.0438    0.0000 Cl  0  0
   20.1755  -22.3118    0.0000 Na  0  3
   13.8371  -20.5532    0.0000 O   0  0
   12.4049  -21.3845    0.0000 O   0  0
   12.4085  -23.0440    0.0000 N   0  0
   15.2697  -23.8542    0.0000 O   0  0
   13.8393  -23.0335    0.0000 N   0  0
 12 21  1  0
 13 14  1  0
 13 15  2  0
 14 16  2  0
 16 17  1  0
 17 18  2  0
 18 19  1  0
 19 20  2  0
 20 14  1  0
 22 23  2  0
 22 24  1  0
  1 25  1  1
  7 26  1  0
 26 27  1  0
  1  2  1  0
 27 28  2  0
  1  6  1  0
 28 29  1  0
 29 33  2  0
  2  3  1  0
 32 30  2  0
 30 27  1  0
  3  4  1  0
 18 31  1  0
  4  5  1  0
  5  6  1  0
 32 33  1  0
  5  7  1  0
 30 34  1  0
  5  8  1  1
 32 35  1  0
  8  9  2  0
  8 10  1  0
  1 11  1  0
 11 12  1  0
 12 38  1  1
 21 39  1  0
 39 13  1  0
 11 37  1  6
  3 40  1  6
  2 41  1  1
 41 22  1  0
M  CHG  2  10  -1  36   1
M  END