
  SciTegic12231509382D

 42 48  0  0  0  0            999 V2000
   17.4374   -3.4124    0.0000 C   0  0
   17.7851   -2.5404    0.0000 C   0  0
   18.1041   -2.9055    0.0000 C   0  0
   18.5441   -2.5233    0.0000 C   0  0
   18.9159   -2.9103    0.0000 C   0  0
   19.1727   -2.0738    0.0000 C   0  0
   17.7911   -2.1168    0.0000 C   0  0
   18.0643   -1.2959    0.0000 C   0  0
   17.4858   -1.8015    0.0000 C   0  0
   18.8744   -1.3092    0.0000 C   0  0
   11.8662   -4.6179    0.0000 C   0  0
   11.8650   -5.4459    0.0000 C   0  0
   12.5809   -5.8568    0.0000 C   0  0
   13.2983   -5.4454    0.0000 C   0  0
   13.2954   -4.6143    0.0000 C   0  0
   12.5791   -4.2028    0.0000 C   0  0
   12.5766   -3.3772    0.0000 O   0  0
   11.8599   -2.9688    0.0000 C   0  0
   14.0072   -4.1985    0.0000 C   0  0
   14.7630   -4.5338    0.0000 C   0  0
   15.3144   -3.9172    0.0000 C   0  0
   14.8969   -3.2032    0.0000 N   0  0
   14.0900   -3.3771    0.0000 N   0  0
   16.1358   -4.0000    0.0000 C   0  0
   16.4726   -4.7532    0.0000 O   0  0
   13.4734   -2.8299    0.0000 C   0  0
   12.0803   -2.5435    0.0000 C   0  0
   12.6933   -3.0912    0.0000 C   0  0
   13.0317   -1.4740    0.0000 C   0  0
   13.6402   -2.0261    0.0000 C   0  0
   14.4211   -1.7685    0.0000 C   0  0
   14.5946   -0.9635    0.0000 C   0  0
   13.9769   -0.4164    0.0000 C   0  0
   13.1984   -0.6726    0.0000 C   0  0
   14.1436    0.3920    0.0000 Cl  0  0
   14.0144   -5.8549    0.0000 O   0  0
   14.0157   -6.6804    0.0000 C   0  0
   16.6160   -3.3294    0.0000 N   0  0
   17.7802   -4.1688    0.0000 C   0  0
   17.2957   -4.8393    0.0000 O   0  0
   18.6015   -4.2516    0.0000 O   0  0
   12.2464   -1.7306    0.0000 N   0  0
  6 10  1  0
 10  8  1  0
  8  9  1  0
 20 21  1  0
 21 22  2  0
 22 23  1  0
 23 19  1  0
 15 19  1  0
 21 24  1  0
  1  2  1  0
 24 25  2  0
 11 12  2  0
 23 26  1  0
 26 30  2  0
  1  3  1  0
 29 42  2  0
 12 13  1  0
 42 27  1  0
  2  4  1  0
 27 28  2  0
 28 26  1  0
 13 14  2  0
  3  5  1  0
 29 30  1  0
 14 15  1  0
 30 31  1  0
  4  6  1  0
 31 32  2  0
 15 16  2  0
 32 33  1  0
 16 11  1  0
 33 34  2  0
 34 29  1  0
  5  6  1  0
 33 35  1  0
 16 17  1  0
 14 36  1  0
  7  8  1  0
 36 37  1  0
 17 18  1  0
 24 38  1  0
 38  1  1  0
 19 20  2  0
  3  7  1  0
  2  9  1  0
 39 40  1  0
 39 41  2  0
  1 39  1  0
M  END