
  SciTegic01161211222D

 20 23  0  0  0  0            999 V2000
   15.0314    0.4701    0.0000 N   0  0
   15.8301    0.6573    0.0000 C   0  0
   14.3823    0.9818    0.0000 C   0  0
   16.1879    1.4062    0.0000 C   0  0
   14.3823    1.8056    0.0000 C   0  0
   15.8301    2.1425    0.0000 C   0  0
   14.7942   -0.3162    0.0000 C   0  0
   15.0272    2.3257    0.0000 C   0  0
   16.1547   -0.7364    0.0000 N   0  0
   16.4001    0.0582    0.0000 C   0  0
   13.6709    0.5616    0.0000 N   0  0
   15.3559   -0.9236    0.0000 C   0  0
   17.0116    1.3438    0.0000 C   0  0
   13.6667    2.2091    0.0000 C   0  0
   16.7163   -1.3355    0.0000 C   0  0
   16.2877    2.8290    0.0000 C   0  0
   12.9595    0.9735    0.0000 C   0  0
   12.9595    1.7973    0.0000 C   0  0
   17.4734    2.0302    0.0000 C   0  0
   17.1032    2.7708    0.0000 C   0  0
  2  1  1  0
  3  1  1  0
  4  2  1  0
  5  3  1  0
  6  4  2  0
  7  1  1  0
  8  5  1  0
  9 12  1  0
 10  2  1  0
 11  3  2  0
 12  7  1  0
 13  4  1  0
 14  5  2  0
 15  9  1  0
 16  6  1  0
 17 11  1  0
 18 17  2  0
 19 13  2  0
 20 19  1  0
  9 10  1  0
  8  6  1  0
 14 18  1  0
 20 16  2  0
M  END