
  SciTegic08041117222D

 19 21  0  0  0  0            999 V2000
   22.4314    1.0082    0.0000 N   0  0
   22.4303    0.1808    0.0000 C   0  0
   23.1447   -0.2322    0.0000 C   0  0
   23.8609    0.1816    0.0000 C   0  0
   23.8581    1.0116    0.0000 C   0  0
   23.1431    1.4210    0.0000 C   0  0
   23.1408    2.2463    0.0000 N   0  0
   21.7657   -0.3078    0.0000 N   0  0
   24.5766   -0.2293    0.0000 N   0  0
   24.5728   -1.0518    0.0000 C   0  0
   25.2844   -1.4626    0.0000 C   0  0
   26.0005   -1.0518    0.0000 N   0  0
   26.0005   -0.2256    0.0000 C   0  0
   25.2844    0.1898    0.0000 C   0  0
   26.7145   -1.4654    0.0000 C   0  0
   20.9837   -0.0543    0.0000 C   0  0
   20.5026   -0.7244    0.0000 C   0  0
   20.9913   -1.3891    0.0000 C   0  0
   21.7744   -1.1296    0.0000 C   0  0
  9 10  1  0
  4  5  1  0
  2  3  1  0
  5  6  2  0
  6  1  1  0
  1  2  2  0
  9 14  1  0
 10 11  1  0
 11 12  1  0
 12 13  1  0
 13 14  1  0
  6  7  1  0
 12 15  1  0
  8 16  1  0
  3  4  2  0
  2  8  1  0
  4  9  1  0
 16 17  1  0
 17 18  1  0
 18 19  1  0
 19  8  1  0
M  END