
  SciTegic04091511462D

114123  0  0  1  0            999 V2000
    7.4378    1.3770    0.0000 N   0  0
    9.0076   -9.9763    0.0000 N   0  0
   12.7875   -9.9033    0.0000 N   0  0
    3.9550   -0.0938    0.0000 N   0  0
    3.1480   -0.2653    0.0000 C   0  0
   12.2355   -9.2902    0.0000 C   0  0
    9.8146   -9.8048    0.0000 C   0  0
    6.6308    1.2054    0.0000 C   0  0
    5.0169    0.8624    0.0000 C   0  0
   11.7256  -10.8594    0.0000 C   0  0
    7.7349   -0.0208    0.0000 C   0  0
    8.7105   -8.5786    0.0000 C   0  0
    8.4556   -9.3632    0.0000 C   0  0  2  0  0  0
    7.9898    0.7639    0.0000 C   0  0  2  0  0  0
   11.9384   -7.8925    0.0000 N   0  0
    3.4451   -1.6630    0.0000 N   0  0
    5.2718    1.6470    0.0000 N   0  0
   11.1736  -10.2463    0.0000 N   0  0
    4.2099    0.6908    0.0000 C   0  0  2  0  0  0
   12.5326  -10.6879    0.0000 C   0  0  2  0  0  0
    2.8931   -1.0499    0.0000 C   0  0  2  0  0  0
   12.4904   -8.5056    0.0000 C   0  0  2  0  0  0
    6.9279   -0.1923    0.0000 N   0  0
    8.1585   -7.9655    0.0000 N   0  0
    9.7724   -7.6224    0.0000 N   0  0
    5.6111   -1.9331    0.0000 N   0  0
    7.5241    2.1974    0.0000 C   0  0
    9.0971  -10.8304    0.0000 C   0  0
    6.0788    1.8185    0.0000 C   0  0  2  0  0  0
   10.3666  -10.4179    0.0000 C   0  0  2  0  0  0
    1.8312   -2.0061    0.0000 C   0  0
   13.5523   -7.5494    0.0000 C   0  0
   11.1314   -8.0640    0.0000 C   0  0
    4.2521   -1.4915    0.0000 C   0  0
    9.2204   -7.0093    0.0000 C   0  0
    5.8660   -1.1484    0.0000 C   0  0
    9.8817  -11.0853    0.0000 C   0  0
    6.7704    2.5330    0.0000 C   0  0
   13.5523   -6.2145    0.0000 N   0  0
    1.0465   -3.0860    0.0000 N   0  0
    1.0465   -2.2610    0.0000 C   0  0
   13.0674   -6.8820    0.0000 C   0  0
   10.5794   -7.4509    0.0000 C   0  0  2  0  0  0
    4.8041   -2.1046    0.0000 C   0  0  2  0  0  0
    8.4134   -7.1809    0.0000 C   0  0  2  0  0  0
    6.6730   -0.9769    0.0000 C   0  0  2  0  0  0
    2.0861   -1.2215    0.0000 C   0  0
   13.2974   -8.3340    0.0000 C   0  0
   14.3370   -7.2945    0.0000 C   0  0
    2.3161   -2.6735    0.0000 C   0  0
    1.8312   -3.3410    0.0000 C   0  0
   14.3370   -6.4695    0.0000 C   0  0
    4.8463   -4.2869    0.0000 C   0  0
   10.5372   -5.2686    0.0000 C   0  0
   11.4285   -9.4617    0.0000 O   0  0
    2.5960    0.3478    0.0000 O   0  0
   10.0695   -9.0202    0.0000 O   0  0
    6.3759    0.4208    0.0000 O   0  0
    5.5689    0.2493    0.0000 O   0  0
    9.5175   -8.4071    0.0000 O   0  0
    8.2869   -0.6339    0.0000 O   0  0
   11.4707  -11.6441    0.0000 O   0  0
   13.0846  -11.3010    0.0000 C   0  0
    3.6579    1.3039    0.0000 C   0  0
    7.6486   -9.5347    0.0000 C   0  0
    8.7968    0.9354    0.0000 C   0  0
    9.4753   -6.2247    0.0000 O   0  0
   10.8765   -8.8486    0.0000 O   0  0
    5.3140   -0.5353    0.0000 O   0  0
    4.5070   -0.7069    0.0000 O   0  0
    5.3983   -4.9000    0.0000 O   0  0
    9.9852   -4.6555    0.0000 O   0  0
    4.5492   -2.8892    0.0000 C   0  0
   10.8343   -6.6663    0.0000 C   0  0
    4.7620   -0.2653    0.0000 C   0  0
   13.5945   -9.7318    0.0000 C   0  0
   10.2823   -6.0532    0.0000 C   0  0
    5.1012   -3.5023    0.0000 C   0  0
   11.3442   -5.0970    0.0000 N   0  0
    4.0393   -4.4585    0.0000 N   0  0
    7.8614   -6.5678    0.0000 C   0  0
    7.2250   -1.5900    0.0000 C   0  0
   12.8297  -12.0856    0.0000 C   0  0
    3.9128    2.0886    0.0000 C   0  0
    7.5643   -5.1701    0.0000 S   0  0
    7.5221   -2.9877    0.0000 S   0  0
    3.1366   -2.7598    0.0000 C   0  0
   15.0514   -7.7070    0.0000 C   0  0
    7.3936  -10.3194    0.0000 C   0  0
    9.0518    1.7200    0.0000 C   0  0
    8.1163   -5.7832    0.0000 C   0  0
    6.9701   -2.3746    0.0000 C   0  0
   15.0514   -6.0570    0.0000 C   0  0
    2.1667   -4.0946    0.0000 C   0  0
    7.8192   -4.3854    0.0000 C   0  0
    7.2672   -3.7723    0.0000 C   0  0
    4.7198    2.2601    0.0000 C   0  0
   12.0227  -12.2572    0.0000 C   0  0
    3.3608    2.7017    0.0000 C   0  0
   13.3817  -12.6987    0.0000 C   0  0
    8.4997    2.3331    0.0000 C   0  0
    7.9457  -10.9325    0.0000 C   0  0
    6.5867  -10.4909    0.0000 C   0  0
    9.8587    1.8915    0.0000 C   0  0
   15.7659   -7.2945    0.0000 C   0  0
    3.4721   -3.5134    0.0000 C   0  0
    2.9872   -4.1809    0.0000 C   0  0
   15.7659   -6.4695    0.0000 C   0  0
   13.1268  -13.4833    0.0000 C   0  0
   11.7678  -13.0418    0.0000 C   0  0
    3.6157    3.4863    0.0000 C   0  0
    4.9747    3.0447    0.0000 C   0  0
   12.3198  -13.6549    0.0000 C   0  0
    4.4227    3.6578    0.0000 C   0  0
  2 13  1  0
  3  6  1  0
  4 19  1  0
  5  4  1  0
  6 22  1  0
  7  2  1  0
  8  1  1  0
  9 17  1  0
 10 18  1  0
 11 14  1  0
 12 24  1  0
 13 12  1  0
 14  1  1  0
 15 33  1  0
 16 34  1  0
 29 17  1  6
 30 18  1  6
 19  9  1  0
 20  3  1  0
 21  5  1  0
 22 15  1  0
 23 11  1  0
 24 45  1  0
 25 35  1  0
 26 36  1  0
 27  1  1  0
 28  2  1  0
 29  8  1  0
 30  7  1  0
 31 47  1  0
 32 48  1  0
 33 43  1  0
 34 44  1  0
 35 45  1  0
 36 46  1  0
 37 28  2  0
 38 27  2  0
 39 42  1  0
 40 41  1  0
 41 31  2  0
 42 32  2  0
 43 25  1  0
 44 26  1  0
 45 81  1  1
 46 23  1  0
 21 47  1  6
 22 48  1  6
 49 32  1  0
 50 31  1  0
 51 50  2  0
 52 49  2  0
 53 78  1  0
 54 77  1  0
 55  6  2  0
 56  5  2  0
 57  7  2  0
 58  8  2  0
 59  9  2  0
 60 12  2  0
 61 11  2  0
 62 10  2  0
 20 63  1  1
 19 64  1  1
 13 65  1  1
 14 66  1  1
 67 35  2  0
 68 33  2  0
 69 36  2  0
 70 34  2  0
 71 53  2  0
 72 54  2  0
 44 73  1  1
 43 74  1  1
 75  4  1  0
 76  3  1  0
 77 74  1  0
 78 73  1  0
 79 54  1  0
 80 53  1  0
 81 91  1  0
 46 82  1  1
 83 63  1  0
 84 64  1  0
 85 95  1  0
 86 92  1  0
 87 50  1  0
 88 49  1  0
 89 65  1  0
 90 66  1  0
 91 85  1  0
 92 82  1  0
 93 52  1  0
 94 51  1  0
 95 96  1  0
 96 86  1  0
 97 84  1  0
 98 83  2  0
 99 84  2  0
100 83  1  0
101 90  1  0
102 89  1  0
103 89  1  0
104 90  1  0
105 88  2  0
106 87  2  0
107106  1  0
108105  1  0
109100  2  0
110 98  1  0
111 99  1  0
112 97  2  0
113109  1  0
114111  2  0
 29 38  1  0
 21 16  1  0
112114  1  0
 51 40  1  0
 94107  2  0
 30 37  1  0
 20 10  1  0
 52 39  1  0
 93108  2  0
113110  2  0
M  END