
  SciTegic12231509382D

 15 15  0  0  0  0            999 V2000
    1.2990   -0.7500    0.0000 C   0  0
    1.2990    0.7500    0.0000 C   0  0
    0.0000   -1.5000    0.0000 C   0  0
   -1.2990   -0.7500    0.0000 C   0  0
    0.0000    1.5000    0.0000 C   0  0
   -1.2990    0.7500    0.0000 C   0  0
    2.5973   -1.5031    0.0000 O   0  0
    2.5972    1.5031    0.0000 O   0  0
   -0.0031   -3.0008    0.0000 O   0  0
   -3.6331    3.6060    0.0000 N   0  0
   -2.5973    1.5031    0.0000 C   0  0
   -2.5951    3.0039    0.0000 C   0  0
    2.5956   -2.7031    0.0000 C   0  0
   -1.0432   -3.5994    0.0000 C   0  0
    2.5955    2.7031    0.0000 C   0  0
  1  2  2  0
  1  3  1  0
  3  4  2  0
  2  5  1  0
  4  6  1  0
  5  6  2  0
  1  7  1  0
  2  8  1  0
  3  9  1  0
  6 11  1  0
 10 12  1  0
 11 12  1  0
  7 13  1  0
  9 14  1  0
  8 15  1  0
M  END