
  CDK    9/16/09,10:4

 33 36  0  0  0  0  0  0  0  0999 V2000
    6.3357   -9.4318    0.0000 C   0  0  0  0  0  0  0  0  0  0  0  0
    7.1656   -9.4110    0.0000 C   0  0  0  0  0  0  0  0  0  0  0  0
    7.5600   -8.6881    0.0000 C   0  0  0  0  0  0  0  0  0  0  0  0
    7.1341   -7.9764    0.0000 C   0  0  0  0  0  0  0  0  0  0  0  0
    6.3043   -7.9973    0.0000 C   0  0  0  0  0  0  0  0  0  0  0  0
    5.9049   -8.7253    0.0000 N   0  0  0  0  0  0  0  0  0  0  0  0
    5.0804   -8.7509    0.0000 C   0  0  0  0  0  0  0  0  0  0  0  0
    8.3850   -8.6769    0.0000 C   0  0  0  0  0  0  0  0  0  0  0  0
    9.2099   -8.6613    0.0000 C   0  0  0  0  0  0  0  0  0  0  0  0
    8.3762   -7.8519    0.0000 C   0  0  0  0  0  0  0  0  0  0  0  0
    9.0828   -7.4309    0.0000 C   0  0  0  0  0  0  0  0  0  0  0  0
    9.0745   -6.6067    0.0000 C   0  0  0  0  0  0  0  0  0  0  0  0
    8.3501   -6.2050    0.0000 C   0  0  0  0  0  0  0  0  0  0  0  0
    7.6416   -6.6340    0.0000 C   0  0  0  0  0  0  0  0  0  0  0  0
    7.6539   -7.4566    0.0000 C   0  0  0  0  0  0  0  0  0  0  0  0
    9.6340   -9.3731    0.0000 C   0  0  0  0  0  0  0  0  0  0  0  0
   10.4581   -9.3579    0.0000 C   0  0  0  0  0  0  0  0  0  0  0  0
   10.8625   -8.6370    0.0000 C   0  0  0  0  0  0  0  0  0  0  0  0
   10.4316   -7.9251    0.0000 C   0  0  0  0  0  0  0  0  0  0  0  0
    9.6090   -7.9442    0.0000 C   0  0  0  0  0  0  0  0  0  0  0  0
    4.6419   -8.0538    0.0000 C   0  0  0  0  0  0  0  0  0  0  0  0
    3.8173   -8.0793    0.0000 O   0  0  0  0  0  0  0  0  0  0  0  0
    3.3833   -7.3777    0.0000 C   0  0  0  0  0  0  0  0  0  0  0  0
    2.5588   -7.4078    0.0000 C   0  0  0  0  0  0  0  0  0  0  0  0
    2.1244   -6.7048    0.0000 C   0  0  0  0  0  0  0  0  0  0  0  0
    1.3006   -6.7298    0.0000 C   0  0  0  0  0  0  0  0  0  0  0  0
    0.9136   -7.4579    0.0000 C   0  0  0  0  0  0  0  0  0  0  0  0
    1.3526   -8.1621    0.0000 C   0  0  0  0  0  0  0  0  0  0  0  0
    2.1747   -8.1329    0.0000 C   0  0  0  0  0  0  0  0  0  0  0  0
    6.6934   -8.5107    0.0000 C   0  0  0  0  0  0  0  0  0  0  0  0
    8.3839   -9.4989    0.0000 C   0  0  0  0  0  0  0  0  0  0  0  0
    8.3781  -10.3210    0.0000 N   0  0  0  0  0  0  0  0  0  0  0  0
    5.7341   -5.6204    0.0000 Br  0  0  0  0  0  0  0  0  0  0  0  0
 16 17  1  0  0  0  0 
  3  8  1  0  0  0  0 
 17 18  2  0  0  0  0 
  1  2  1  0  0  0  0 
 18 19  1  0  0  0  0 
  8  9  1  0  0  0  0 
 19 20  2  0  0  0  0 
 20  9  1  0  0  0  0 
  1  6  1  0  0  0  0 
  7 21  1  0  0  0  0 
  8 10  1  0  0  0  0 
 21 22  1  0  0  0  0 
  2  3  1  0  0  0  0 
 22 23  1  0  0  0  0 
 10 11  2  0  0  0  0 
 23 24  1  0  0  0  0 
  3  4  1  0  0  0  0 
 24 25  2  0  0  0  0 
 11 12  1  0  0  0  0 
 25 26  1  0  0  0  0 
  4  5  1  0  0  0  0 
 26 27  2  0  0  0  0 
 12 13  2  0  0  0  0 
 27 28  1  0  0  0  0 
  5  6  1  0  0  0  0 
 28 29  2  0  0  0  0 
 29 24  1  0  0  0  0 
 13 14  1  0  0  0  0 
 14 15  2  0  0  0  0 
  6 30  1  0  0  0  0 
 30  3  1  0  0  0  0 
 15 10  1  0  0  0  0 
  8 31  1  0  0  0  0 
  6  7  1  0  0  0  0 
 31 32  3  0  0  0  0 
  9 16  2  0  0  0  0 
M  CHG  1   6   1
M  CHG  1  33  -1
M  END