
          11280715242D 1   1.00000     0.00000     0

 27 29  0     0  0            999 V2000
    3.6292   -3.3125    0.0000 C   0  0  0  0  0  0           0  0  0
    7.6542   -1.9000    0.0000 C   0  0  0  0  0  0           0  0  0
    7.1792   -2.2542    0.0000 N   0  0  3  0  0  0           0  0  0
    3.6292   -3.9125    0.0000 C   0  0  0  0  0  0           0  0  0
    3.1125   -3.0125    0.0000 C   0  0  0  0  0  0           0  0  0
    4.1542   -3.0042    0.0000 C   0  0  0  0  0  0           0  0  0
    3.1125   -4.2125    0.0000 C   0  0  0  0  0  0           0  0  0
    2.5917   -3.3125    0.0000 C   0  0  0  0  0  0           0  0  0
    2.5917   -3.9125    0.0000 C   0  0  0  0  0  0           0  0  0
    6.2292   -3.0000    0.0000 N   0  0  3  0  0  0           0  0  0
    8.2042   -2.1292    0.0000 N   0  0  0  0  0  0           0  0  0
    7.5792   -1.3042    0.0000 N   0  0  0  0  0  0           0  0  0
    7.2500   -2.8542    0.0000 C   0  0  0  0  0  0           0  0  0
    6.6292   -2.0250    0.0000 C   0  0  0  0  0  0           0  0  0
    4.1500   -2.4042    0.0000 O   0  0  0  0  0  0           0  0  0
    6.7792   -3.2250    0.0000 C   0  0  0  0  0  0           0  0  0
    6.1417   -2.4000    0.0000 C   0  0  0  0  0  0           0  0  0
    2.0667   -4.2125    0.0000 N   0  0  0  0  0  0           0  0  0
    4.6750   -3.3042    0.0000 O   0  0  0  0  0  0           0  0  0
    2.0792   -3.0125    0.0000 Cl  0  0  0  0  0  0           0  0  0
    4.1542   -4.2125    0.0000 O   0  0  0  0  0  0           0  0  0
    5.7125   -3.3000    0.0000 C   0  0  0  0  0  0           0  0  0
    5.1917   -3.0042    0.0000 C   0  0  0  0  0  0           0  0  0
    8.6125   -1.1792    0.0000 C   0  0  0  0  0  0           0  0  0
    8.0542   -0.9417    0.0000 C   0  0  0  0  0  0           0  0  0
    8.6875   -1.7792    0.0000 C   0  0  0  0  0  0           0  0  0
    4.1542   -4.8125    0.0000 C   0  0  0  0  0  0           0  0  0
  2  3  1  0     0  0
  3 14  1  0     0  0
  4  1  1  0     0  0
  5  1  2  0     0  0
  6  1  1  0     0  0
  7  4  2  0     0  0
  8  5  1  0     0  0
  9  8  2  0     0  0
 10 22  1  0     0  0
 11  2  2  0     0  0
 12  2  1  0     0  0
 13 16  1  0     0  0
 14 17  1  0     0  0
 15  6  2  0     0  0
 16 10  1  0     0  0
 17 10  1  0     0  0
 18  9  1  0     0  0
 19  6  1  0     0  0
 20  8  1  0     0  0
 21  4  1  0     0  0
 22 23  1  0     0  0
 23 19  1  0     0  0
 24 25  1  0     0  0
 25 12  2  0     0  0
 26 11  1  0     0  0
 27 21  1  0     0  0
  7  9  1  0     0  0
 13  3  1  0     0  0
 24 26  2  0     0  0
M  END