
  SciTegic02011310442D

 36 40  0  0  0  0            999 V2000
   16.8371  -13.8151    0.0000 N   0  0
   17.5535  -13.4017    0.0000 C   0  0
   17.5507  -12.5712    0.0000 N   0  0
   16.8353  -12.1621    0.0000 C   0  0
   16.1223  -13.4022    0.0000 N   0  0
   16.1235  -12.5733    0.0000 C   0  0
   15.3355  -12.3160    0.0000 C   0  0
   14.8473  -12.9859    0.0000 C   0  0
   15.3335  -13.6572    0.0000 C   0  0
   18.2687  -13.8131    0.0000 S   0  0
   18.9824  -13.3995    0.0000 C   0  0
   16.8335  -11.3371    0.0000 N   0  0
   17.5470  -10.9230    0.0000 C   0  0
   19.6943  -13.8113    0.0000 C   0  0
   20.4075  -13.3984    0.0000 C   0  0
   20.4067  -12.5725    0.0000 C   0  0
   19.6866  -12.1613    0.0000 C   0  0
   18.9762  -12.5766    0.0000 C   0  0
   18.2992  -11.2582    0.0000 C   0  0
   18.8499  -10.6439    0.0000 C   0  0
   18.4358   -9.9303    0.0000 N   0  0
   17.6292  -10.1038    0.0000 N   0  0
   19.6705  -10.7284    0.0000 C   0  0
   21.1199  -12.1580    0.0000 N   0  0
   21.8356  -12.5684    0.0000 C   0  0
   22.5489  -12.1538    0.0000 C   0  0
   23.2645  -12.5642    0.0000 N   0  0
   21.8380  -13.3934    0.0000 O   0  0
   23.3503  -13.3823    0.0000 C   0  0
   24.1578  -13.5515    0.0000 C   0  0  1  0  0  0
   24.5682  -12.8357    0.0000 C   0  0
   24.0143  -12.2243    0.0000 C   0  0
   24.4956  -14.3042    0.0000 O   0  0
   25.3162  -14.3880    0.0000 C   0  0
   25.7992  -13.7191    0.0000 C   0  0
   26.6200  -13.8030    0.0000 O   0  0
  5  1  1  0
  1  2  2  0
  2  3  1  0
  3  4  2  0
  4  6  1  0
  5  6  1  0
  6  7  2  0
  7  8  1  0
  8  9  2  0
  9  5  1  0
  2 10  1  0
 10 11  1  0
  4 12  1  0
 12 13  1  0
 11 14  2  0
 14 15  1  0
 15 16  2  0
 16 17  1  0
 17 18  2  0
 18 11  1  0
 13 19  1  0
 19 20  2  0
 20 21  1  0
 21 22  1  0
 22 13  2  0
 20 23  1  0
 16 24  1  0
 24 25  1  0
 25 26  1  0
 26 27  1  0
 25 28  2  0
 27 29  1  0
 29 30  1  0
 30 31  1  0
 31 32  1  0
 32 27  1  0
 30 33  1  1
 33 34  1  0
 34 35  1  0
 35 36  1  0
M  END