
          11280715242D 1   1.00000     0.00000     0

 45 49  0     0  0            999 V2000
    4.8167   -9.4167    0.0000 N   0  0  0  0  0  0           0  0  0
    4.3417   -8.1750    0.0000 N   0  0  3  0  0  0           0  0  0
    5.4542   -8.9042    0.0000 C   0  0  0  0  0  0           0  0  0
    5.1667   -8.1292    0.0000 N   0  0  0  0  0  0           0  0  0
    4.1250   -8.9667    0.0000 C   0  0  0  0  0  0           0  0  0
    0.2250   -6.7417    0.0000 C   0  0  0  0  0  0           0  0  0
    9.7292  -11.3750    0.0000 C   0  0  0  0  0  0           0  0  0
    9.7292  -10.5500    0.0000 C   0  0  0  0  0  0           0  0  0
    0.6375   -7.4542    0.0000 C   0  0  0  0  0  0           0  0  0
    9.0125  -11.7875    0.0000 C   0  0  0  0  0  0           0  0  0
    0.6375   -6.0292    0.0000 C   0  0  0  0  0  0           0  0  0
    3.9292   -7.4542    0.0000 C   0  0  0  0  0  0           0  0  0
    6.1667   -9.3167    0.0000 S   0  0  0  0  0  0           0  0  0
    1.4625   -7.4542    0.0000 C   0  0  0  0  0  0           0  0  0
    9.0167  -10.1375    0.0000 C   0  0  0  0  0  0           0  0  0
    8.3000  -11.3667    0.0000 O   0  0  0  0  0  0           0  0  0
    1.4625   -6.0292    0.0000 O   0  0  0  0  0  0           0  0  0
    1.8667   -8.1750    0.0000 C   0  0  0  0  0  0           0  0  0
    9.0125   -9.3042    0.0000 C   0  0  0  0  0  0           0  0  0
    1.8667   -6.7417    0.0000 C   0  0  0  0  0  0           0  0  0
    8.3000  -10.5417    0.0000 C   0  0  0  0  0  0           0  0  0
    3.1042   -7.4542    0.0000 C   0  0  0  0  0  0           0  0  0
    9.0125  -12.6125    0.0000 O   0  0  0  0  0  0           0  0  0
    0.2167   -5.3167    0.0000 O   0  0  0  0  0  0           0  0  0
    6.8792   -8.9000    0.0000 C   0  0  0  0  0  0           0  0  0
    7.5917   -9.3125    0.0000 C   0  0  0  0  0  0           0  0  0
    2.6917   -8.1750    0.0000 C   0  0  0  0  0  0           0  0  0
    2.6917   -6.7417    0.0000 C   0  0  0  0  0  0           0  0  0
    7.5917  -10.1292    0.0000 C   0  0  0  0  0  0           0  0  0
    8.3042   -8.9000    0.0000 C   0  0  0  0  0  0           0  0  0
    3.5417   -9.5500    0.0000 C   0  0  0  0  0  0           0  0  0
   10.4417  -11.7875    0.0000 C   0  0  0  0  0  0           0  0  0
   -0.6000   -6.7500    0.0000 C   0  0  0  0  0  0           0  0  0
   10.4417  -10.1375    0.0000 C   0  0  0  0  0  0           0  0  0
    0.2250   -8.1667    0.0000 C   0  0  0  0  0  0           0  0  0
    2.7417   -9.3375    0.0000 C   0  0  0  0  0  0           0  0  0
   -0.0208  -10.0667    0.0000 C   0  0  0  0  0  0           0  0  0
    0.7792  -10.2875    0.0000 C   0  0  0  0  0  0           0  0  0
    2.1625   -9.9167    0.0000 C   0  0  0  0  0  0           0  0  0
    1.3667   -9.7042    0.0000 C   0  0  0  0  0  0           0  0  0
   -1.0083   -7.4625    0.0000 C   0  0  0  0  0  0           0  0  0
   11.1542  -11.3750    0.0000 C   0  0  0  0  0  0           0  0  0
   11.1542  -10.5417    0.0000 C   0  0  0  0  0  0           0  0  0
   -0.6000   -8.1667    0.0000 C   0  0  0  0  0  0           0  0  0
   -0.6083  -10.6500    0.0000 C   0  0  0  0  0  0           0  0  0
  2  5  1  0     0  0
  3  1  1  0     0  0
  4  3  2  0     0  0
  5  1  2  0     0  0
  6  9  2  0     0  0
  7  8  2  0     0  0
  8 15  1  0     0  0
  9 14  1  0     0  0
 10  7  1  0     0  0
 11  6  1  0     0  0
 12  2  1  0     0  0
 13  3  1  0     0  0
 14 20  1  0     0  0
 15 19  1  0     0  0
 16 10  2  0     0  0
 17 11  2  0     0  0
 18 27  1  0     0  0
 19 30  2  0     0  0
 20 28  2  0     0  0
 21 29  1  0     0  0
 22 12  1  0     0  0
 23 10  1  0     0  0
 24 11  1  0     0  0
 25 13  1  0     0  0
 26 25  1  0     0  0
 27 22  2  0     0  0
 28 22  1  0     0  0
 29 26  2  0     0  0
 30 26  1  0     0  0
 31  5  1  0     0  0
 32  7  1  0     0  0
 33  6  1  0     0  0
 34  8  1  0     0  0
 35  9  1  0     0  0
 36 31  1  0     0  0
 37 38  1  0     0  0
 38 40  1  0     0  0
 39 36  1  0     0  0
 40 39  1  0     0  0
 41 44  1  0     0  0
 42 43  1  0     0  0
 43 34  2  0     0  0
 44 35  2  0     0  0
 45 37  1  0     0  0
  2  4  1  0     0  0
 18 14  2  0     0  0
 15 21  2  0     0  0
 41 33  2  0     0  0
 42 32  2  0     0  0
M  END