
          11280715002D 1   1.00000     0.00000     0

 50 54  0     1  0            999 V2000
   -3.9167   -1.4958    0.0000 C   0  0  0  0  0  0           0  0  0
   -6.5083    1.5083    0.0000 C   0  0  0  0  0  0           0  0  0
   -5.2125   -0.7417    0.0000 N   0  0  0  0  0  0           0  0  0
   -2.6125   -0.7458    0.0000 N   0  0  0  0  0  0           0  0  0
   -5.2125    0.7583    0.0000 C   0  0  1  0  0  0           0  0  0
  -22.1083    5.9750    0.0000 C   0  0  0  0  0  0           0  0  0
  -14.3083    5.9958    0.0000 C   0  0  0  0  0  0           0  0  0
   -6.5083    3.0083    0.0000 N   0  0  0  0  0  0           0  0  0
   -3.9125   -2.9958    0.0000 N   0  0  0  0  0  0           0  0  0
  -13.0042    5.2500    0.0000 N   0  0  0  0  0  0           0  0  0
  -23.1458    5.3750    0.0000 N   0  0  0  0  0  0           0  0  0
   -3.9125    1.5042    0.0000 C   0  0  0  0  0  0           0  0  0
   -7.5458    0.9083    0.0000 O   0  0  0  0  0  0           0  0  0
   -2.5875    5.2542    0.0000 C   0  0  0  0  0  0           0  0  0
   -3.9042    3.0042    0.0000 C   0  0  0  0  0  0           0  0  0
   -2.5958    3.7625    0.0000 C   0  0  0  0  0  0           0  0  0
  -14.3083    7.1958    0.0000 O   0  0  0  0  0  0           0  0  0
  -20.8042    5.2292    0.0000 N   0  0  0  0  0  0           0  0  0
   -3.8792    6.0083    0.0000 C   0  0  0  0  0  0           0  0  0
  -15.6042    5.2417    0.0000 C   0  0  1  0  0  0           0  0  0
   -7.8042    3.7625    0.0000 C   0  0  0  0  0  0           0  0  0
  -22.1083    7.1750    0.0000 N   0  0  0  0  0  0           0  0  0
   -5.1792    5.2708    0.0000 C   0  0  0  0  0  0           0  0  0
  -11.7083    6.0042    0.0000 C   0  0  0  0  0  0           0  0  0
   -5.2000    3.7625    0.0000 C   0  0  0  0  0  0           0  0  0
  -10.4042    5.2542    0.0000 C   0  0  0  0  0  0           0  0  0
   -1.3167   -1.5000    0.0000 C   0  0  3  0  0  0           0  0  0
  -15.6042    4.0417    0.0000 N   0  0  0  0  0  0           0  0  0
   -5.2125   -3.7500    0.0000 C   0  0  3  0  0  0           0  0  0
   -7.8083    5.2583    0.0000 C   0  0  0  0  0  0           0  0  0
   -9.1042    3.0125    0.0000 C   0  0  0  0  0  0           0  0  0
   -9.1083    6.0083    0.0000 C   0  0  0  0  0  0           0  0  0
  -10.4042    3.7583    0.0000 C   0  0  0  0  0  0           0  0  0
   -1.2875    5.9958    0.0000 C   0  0  0  0  0  0           0  0  0
  -19.5083    5.9833    0.0000 C   0  0  0  0  0  0           0  0  0
  -16.9083    5.9875    0.0000 C   0  0  0  0  0  0           0  0  0
   -3.8708    7.5083    0.0000 C   0  0  0  0  0  0           0  0  0
   -0.0125   -0.7542    0.0000 C   0  0  0  0  0  0           0  0  0
   -1.3208   -3.0000    0.0000 C   0  0  0  0  0  0           0  0  0
   -5.2167   -5.2500    0.0000 C   0  0  0  0  0  0           0  0  0
   -6.5083   -2.9958    0.0000 C   0  0  0  0  0  0           0  0  0
  -18.2042    5.2375    0.0000 C   0  0  0  0  0  0           0  0  0
   -1.2792    7.4917    0.0000 C   0  0  0  0  0  0           0  0  0
   -2.5708    8.2500    0.0000 C   0  0  0  0  0  0           0  0  0
   -7.8083   -3.7458    0.0000 C   0  0  0  0  0  0           0  0  0
    1.2833   -1.5083    0.0000 C   0  0  0  0  0  0           0  0  0
   -0.0250   -3.7542    0.0000 C   0  0  0  0  0  0           0  0  0
   -6.5083   -5.9958    0.0000 C   0  0  0  0  0  0           0  0  0
    1.2792   -3.0083    0.0000 C   0  0  0  0  0  0           0  0  0
   -7.8083   -5.2458    0.0000 C   0  0  0  0  0  0           0  0  0
  2  5  1  0     0  0
  3  1  2  0     0  0
  4  1  1  0     0  0
  5  3  1  0     0  0
  6 18  2  0     0  0
  7 10  1  0     0  0
  8  2  1  0     0  0
  9  1  1  0     0  0
 10 24  1  0     0  0
 11  6  1  0     0  0
  5 12  1  6     0  0
 13  2  2  0     0  0
 14 16  2  0     0  0
 15 12  1  0     0  0
 16 15  1  0     0  0
 17  7  2  0     0  0
 18 35  1  0     0  0
 19 14  1  0     0  0
 20  7  1  0     0  0
 21  8  1  0     0  0
 22  6  1  0     0  0
 23 25  1  0     0  0
 24 26  1  0     0  0
 25 15  2  0     0  0
 26 33  1  0     0  0
 27  4  1  0     0  0
 20 28  1  1     0  0
 29  9  1  0     0  0
 30 21  2  0     0  0
 31 21  1  0     0  0
 32 30  1  0     0  0
 33 31  2  0     0  0
 34 14  1  0     0  0
 35 42  1  0     0  0
 36 20  1  0     0  0
 37 19  1  0     0  0
 38 27  1  0     0  0
 39 27  1  0     0  0
 40 29  1  0     0  0
 41 29  1  0     0  0
 42 36  1  0     0  0
 43 34  2  0     0  0
 44 37  2  0     0  0
 45 41  1  0     0  0
 46 38  1  0     0  0
 47 39  1  0     0  0
 48 40  1  0     0  0
 49 47  1  0     0  0
 50 45  1  0     0  0
 50 48  1  0     0  0
 49 46  1  0     0  0
 19 23  2  0     0  0
 32 26  2  0     0  0
 43 44  1  0     0  0
M  END