
  SciTegic01161211232D

 29 30  0  0  0  0            999 V2000
    4.9395   -1.3433    0.0000 C   0  0
    3.8990   -0.7455    0.0000 N   0  0
    2.6003   -1.4977    0.0000 C   0  0
    2.6024   -2.6977    0.0000 O   0  0
    1.2990   -0.7500    0.0000 C   0  0
    1.2990    0.7500    0.0000 C   0  0
    0.0000    1.5000    0.0000 C   0  0
   -1.2990    0.7500    0.0000 C   0  0
   -1.2990   -0.7500    0.0000 C   0  0
    0.0000   -1.5000    0.0000 C   0  0
    0.0000   -2.7000    0.0000 O   0  0
   -0.0031    3.0008    0.0000 C   0  0
    1.0351    3.6026    0.0000 O   0  0
   -1.3039    3.7494    0.0000 C   0  0
   -1.3070    5.2502    0.0000 N   0  0
   -2.6061    6.0003    0.0000 C   0  0
   -2.6061    7.5003    0.0000 C   0  0
   -1.3071    8.2503    0.0000 N   0  0
   -0.0080    7.5003    0.0000 C   0  0
   -0.0080    6.0003    0.0000 C   0  0
   -1.3071    9.7511    0.0000 C   0  0
   -2.6050   10.5032    0.0000 C   0  0
   -2.6027   12.0032    0.0000 C   0  0
   -1.3025   12.7512    0.0000 C   0  0
   -1.2970   14.2520    0.0000 O   0  0
   -0.2560   14.8489    0.0000 C   0  0
   -0.0046   11.9991    0.0000 C   0  0
   -0.0069   10.4991    0.0000 C   0  0
    7.7003    5.9989    0.0000 Cl  0  0
  1  2  1  0
  2  3  1  0
  3  4  2  0
  3  5  1  0
  5  6  2  0
  6  7  1  0
  7  8  2  0
  8  9  1  0
  9 10  2  0
 10  5  1  0
 10 11  1  0
  7 12  1  0
 12 13  1  0
 12 14  1  0
 14 15  1  0
 15 16  1  0
 16 17  1  0
 17 18  1  0
 18 19  1  0
 19 20  1  0
 20 15  1  0
 18 21  1  0
 21 22  2  0
 22 23  1  0
 23 24  2  0
 24 25  1  0
 25 26  1  0
 24 27  1  0
 27 28  2  0
 28 21  1  0
M  END