
  SciTegic12231509382D

 37 40  0  0  1  0            999 V2000
    1.4633   -1.9595    0.0000 C   0  0
    1.6665   -1.2607    0.0000 C   0  0
    2.0186   -2.3392    0.0000 C   0  0
    0.8560   -1.6135    0.0000 C   0  0
    1.4633   -2.6776    0.0000 C   0  0
    2.3880   -1.2607    0.0000 C   0  0
    1.3102   -0.6370    0.0000 C   0  0
    2.5887   -1.9491    0.0000 N   0  0
    0.2695   -1.9595    0.0000 C   0  0
    0.8560   -3.0408    0.0000 C   0  0
    2.7375   -0.6370    0.0000 C   0  0
    1.6665   -0.0070    0.0000 C   0  0
    3.2220   -2.2917    0.0000 S   0  0
    0.2695   -2.6776    0.0000 N   0  0
    2.3647   -0.0070    0.0000 C   0  0
    3.8258   -1.9491    0.0000 C   0  0
    2.6458   -2.7286    0.0000 O   0  0
    3.8051   -2.7286    0.0000 O   0  0
   -0.3370   -3.0201    0.0000 C   0  0
   -0.9676   -2.6576    0.0000 C   0  0  1  0  0  0
   -0.3370   -3.7182    0.0000 O   0  0
   -0.9676   -1.9491    0.0000 C   0  0
   -1.6120   -3.0098    0.0000 N   0  0
   -1.5706   -1.6031    0.0000 O   0  0
   -2.2591   -2.6576    0.0000 C   0  0
   -1.5706   -0.8678    0.0000 C   0  0
   -2.8897   -3.0098    0.0000 C   0  0
   -2.2591   -1.9491    0.0000 O   0  0
   -2.1501   -0.4880    0.0000 C   0  0
   -2.8897   -3.7182    0.0000 C   0  0
   -3.5203   -3.3930    0.0000 C   0  0
   -3.5203   -2.6776    0.0000 N   0  0
   -2.7876   -0.8402    0.0000 C   0  0
   -2.1501    0.2411    0.0000 C   0  0
   -3.3948   -0.4880    0.0000 C   0  0
   -2.7876    0.5422    0.0000 C   0  0
   -3.3948    0.2411    0.0000 C   0  0
 13 17  2  0
 13 18  2  0
 14 19  1  0
 19 20  1  0
 19 21  2  0
 20 22  1  6
 20 23  1  0
 22 24  1  0
 23 25  1  0
 24 26  1  0
 25 27  1  0
 25 28  2  0
 26 29  1  0
 27 30  1  0
 27 31  1  0
 27 32  1  0
 29 33  1  0
 29 34  2  0
 33 35  2  0
 34 36  1  0
 35 37  1  0
  6  8  1  0
 10 14  1  0
 12 15  2  0
 36 37  2  0
  1  2  1  0
  1  3  1  0
  1  4  1  0
  1  5  1  0
  2  6  1  0
  2  7  2  0
  3  8  1  0
  4  9  1  0
  5 10  1  0
  6 11  2  0
  7 12  1  0
  8 13  1  0
  9 14  1  0
 11 15  1  0
 13 16  1  0
M  END