
  CDK    9/16/09,10:8

 13 14  0  0  0  0  0  0  0  0999 V2000
   13.7727    2.2437    0.0000 C   0  0  0  0  0  0  0  0  0  0  0  0
   13.7715    1.4187    0.0000 C   0  0  0  0  0  0  0  0  0  0  0  0
   14.4843    1.0070    0.0000 C   0  0  0  0  0  0  0  0  0  0  0  0
   14.4825    2.6554    0.0000 C   0  0  0  0  0  0  0  0  0  0  0  0
   15.1959    2.2474    0.0000 C   0  0  0  0  0  0  0  0  0  0  0  0
   15.1947    1.4166    0.0000 C   0  0  0  0  0  0  0  0  0  0  0  0
   15.9096    1.0025    0.0000 N   0  0  0  0  0  0  0  0  0  0  0  0
   16.6303    1.4146    0.0000 C   0  0  0  0  0  0  0  0  0  0  0  0
   16.6315    2.2453    0.0000 C   0  0  0  0  0  0  0  0  0  0  0  0
   15.9120    2.6641    0.0000 C   0  0  0  0  0  0  0  0  0  0  0  0
   17.3449    2.6550    0.0000 O   0  0  0  0  0  0  0  0  0  0  0  0
   17.3416    1.0012    0.0000 O   0  0  0  0  0  0  0  0  0  0  0  0
   13.0587    1.0079    0.0000 F   0  0  0  0  0  0  0  0  0  0  0  0
  3  6  2  0  0  0  0 
  1  2  2  0  0  0  0 
  5  4  2  0  0  0  0 
  4  1  1  0  0  0  0 
  5 10  1  0  0  0  0 
  6  7  1  0  0  0  0 
  7  8  1  0  0  0  0 
  8  9  1  0  0  0  0 
  9 10  2  0  0  0  0 
  5  6  1  0  0  0  0 
  9 11  1  0  0  0  0 
  8 12  2  0  0  0  0 
  2  3  1  0  0  0  0 
  2 13  1  0  0  0  0 
M  END