
  SciTegic02271515152D

 41 43  0  0  0  0            999 V2000
    5.4465  -21.1231    0.0000 C   0  0
    5.4454  -21.9427    0.0000 C   0  0
    6.1534  -22.3516    0.0000 C   0  0
    6.8631  -21.9422    0.0000 C   0  0
    6.8603  -21.1195    0.0000 C   0  0
    6.1516  -20.7143    0.0000 C   0  0
    4.7387  -20.7147    0.0000 C   0  0
    4.0311  -21.1235    0.0000 N   0  0
    7.5674  -22.3477    0.0000 C   0  0
    7.6542  -23.1603    0.0000 C   0  0
    8.4538  -23.3290    0.0000 N   0  0
    8.8613  -22.6206    0.0000 C   0  0
    8.3134  -22.0142    0.0000 S   0  0
    3.3233  -20.7150    0.0000 C   0  0
    2.6157  -21.1238    0.0000 O   0  0
    3.3231  -19.8978    0.0000 C   0  0  2  0  0  0
    3.9895  -19.4184    0.0000 C   0  0
    3.7368  -18.6413    0.0000 C   0  0  2  0  0  0
    2.9195  -18.6415    0.0000 C   0  0
    2.6673  -19.4187    0.0000 N   0  0
    1.8898  -19.6704    0.0000 C   0  0
    1.7190  -20.4695    0.0000 O   0  0
    4.2170  -17.9800    0.0000 O   0  0
    7.0477  -23.7081    0.0000 C   0  0
    1.2832  -19.1229    0.0000 C   0  0  2  0  0  0
    1.4540  -18.3237    0.0000 C   0  0
    0.5057  -19.3745    0.0000 N   0  0
    2.2315  -18.0721    0.0000 C   0  0
    0.8473  -17.7763    0.0000 C   0  0
    1.6633  -17.5283    0.0000 C   0  0
   -0.1054  -18.8271    0.0000 C   0  0
   -0.8797  -19.0787    0.0000 C   0  0  1  0  0  0
    0.0698  -18.0279    0.0000 O   0  0
   -1.4865  -18.5312    0.0000 N   0  0
   -1.0556  -19.8778    0.0000 C   0  0
   -1.3188  -17.7321    0.0000 C   0  0
   -1.9256  -17.1846    0.0000 C   0  0
   -0.5445  -17.4804    0.0000 O   0  0
   -1.8300  -20.1295    0.0000 C   0  0
   -2.4334  -19.5820    0.0000 C   0  0
   -1.9976  -20.9286    0.0000 C   0  0
  1  2  2  0
  2  3  1  0
  3  4  2  0
  4  5  1  0
  5  6  2  0
  6  1  1  0
  1  7  1  0
  7  8  1  0
  9 10  2  0
 10 11  1  0
 11 12  2  0
 12 13  1  0
 13  9  1  0
  4  9  1  0
  8 14  1  0
 14 15  2  0
 16 14  1  1
 16 17  1  0
 17 18  1  0
 18 19  1  0
 19 20  1  0
 20 16  1  0
 20 21  1  0
 21 22  2  0
 18 23  1  6
 10 24  1  0
 21 25  1  0
 25 26  1  1
 25 27  1  0
 26 28  1  0
 26 29  1  0
 26 30  1  0
 27 31  1  0
 31 32  1  0
 31 33  2  0
 32 34  1  0
 32 35  1  6
 34 36  1  0
 36 37  1  0
 36 38  2  0
 35 39  1  0
 39 40  1  0
 39 41  1  0
M  END