
          11280715342D 1   1.00000     0.00000     0

 30 33  0     0  0            999 V2000
    2.2292   -2.4792    0.0000 C   0  0  0  0  0  0           0  0  0
    1.5167   -2.0625    0.0000 C   0  0  0  0  0  0           0  0  0
    2.2292   -3.3000    0.0000 C   0  0  0  0  0  0           0  0  0
    0.8042   -2.4792    0.0000 C   0  0  0  0  0  0           0  0  0
    4.3625   -2.0542    0.0000 C   0  0  0  0  0  0           0  0  0
    5.0750   -1.6417    0.0000 C   0  0  0  0  0  0           0  0  0
    1.5167   -3.7125    0.0000 C   0  0  3  0  0  0           0  0  0
    7.9125    0.0458    0.0000 C   0  0  0  0  0  0           0  0  0
    1.5167   -1.2375    0.0000 C   0  0  0  0  0  0           0  0  0
    2.9417   -3.7125    0.0000 C   0  0  0  0  0  0           0  0  0
    2.9375   -2.0667    0.0000 C   0  0  0  0  0  0           0  0  0
    0.8042   -3.3042    0.0000 C   0  0  0  0  0  0           0  0  0
    7.2000   -0.3792    0.0000 C   0  0  0  0  0  0           0  0  0
    3.6500   -2.4750    0.0000 C   0  0  0  0  0  0           0  0  0
    7.9000    0.8708    0.0000 O   0  0  0  0  0  0           0  0  0
    5.7792   -1.2167    0.0000 C   0  0  0  0  0  0           0  0  0
    2.2292   -0.8250    0.0000 C   0  0  0  0  0  0           0  0  0
    0.8042   -0.8250    0.0000 C   0  0  0  0  0  0           0  0  0
    6.4792    0.0208    0.0000 C   0  0  0  0  0  0           0  0  0
    7.2042   -1.2042    0.0000 C   0  0  0  0  0  0           0  0  0
    3.6542   -3.3000    0.0000 C   0  0  0  0  0  0           0  0  0
    8.6292   -0.3625    0.0000 O   0  0  0  0  0  0           0  0  0
    1.5167    0.4125    0.0000 C   0  0  0  0  0  0           0  0  0
    5.7667   -0.4000    0.0000 C   0  0  0  0  0  0           0  0  0
    6.5000   -1.6292    0.0000 C   0  0  0  0  0  0           0  0  0
    0.8042   -0.0042    0.0000 C   0  0  0  0  0  0           0  0  0
    2.2292    0.0000    0.0000 C   0  0  0  0  0  0           0  0  0
    1.5167    1.2375    0.0000 Cl  0  0  0  0  0  0           0  0  0
    1.9250   -4.4250    0.0000 C   0  0  0  0  0  0           0  0  0
    1.1000   -4.4250    0.0000 C   0  0  0  0  0  0           0  0  0
  2  1  1  0     0  0
  3  1  2  0     0  0
  4  2  2  0     0  0
  5 14  1  0     0  0
  6  5  3  0     0  0
  7  3  1  0     0  0
  8 13  1  0     0  0
  9  2  1  0     0  0
 10  3  1  0     0  0
 11  1  1  0     0  0
 12  7  1  0     0  0
 13 20  2  0     0  0
 14 11  2  0     0  0
 15  8  2  0     0  0
 16  6  1  0     0  0
 17  9  2  0     0  0
 18  9  1  0     0  0
 19 24  2  0     0  0
 20 25  1  0     0  0
 21 14  1  0     0  0
 22  8  1  0     0  0
 23 26  1  0     0  0
 24 16  1  0     0  0
 25 16  2  0     0  0
 26 18  2  0     0  0
 27 17  1  0     0  0
 28 23  1  0     0  0
 29  7  1  0     0  0
 30  7  1  0     0  0
 10 21  2  0     0  0
  4 12  1  0     0  0
 27 23  2  0     0  0
 13 19  1  0     0  0
M  END