
  Mrv0541 05211314572D          

 31 32  0  0  0  0            999 V2000
   -1.5957    0.8663    0.0000 N   0  0  0  0  0  0  0  0  0  0  0  0
   -0.8812    0.4538    0.0000 C   0  0  0  0  0  0  0  0  0  0  0  0
   -2.3101   -0.3713    0.0000 C   0  0  0  0  0  0  0  0  0  0  0  0
   -2.3101    0.4537    0.0000 C   0  0  0  0  0  0  0  0  0  0  0  0
   -0.8812   -0.3712    0.0000 N   0  0  0  0  0  0  0  0  0  0  0  0
   -1.5957   -0.7838    0.0000 C   0  0  0  0  0  0  0  0  0  0  0  0
   -3.0246   -0.7838    0.0000 C   0  0  0  0  0  0  0  0  0  0  0  0
   -1.5957   -1.6088    0.0000 C   0  0  0  0  0  0  0  0  0  0  0  0
    2.6912    0.8662    0.0000 C   0  0  0  0  0  0  0  0  0  0  0  0
   -3.0246   -1.6088    0.0000 C   0  0  0  0  0  0  0  0  0  0  0  0
   -2.3101   -2.0213    0.0000 C   0  0  0  0  0  0  0  0  0  0  0  0
   -0.1667    0.8663    0.0000 N   0  0  0  0  0  0  0  0  0  0  0  0
    2.6912    1.6913    0.0000 C   0  0  0  0  0  0  0  0  0  0  0  0
    3.4056    0.4538    0.0000 C   0  0  0  0  0  0  0  0  0  0  0  0
   -3.0246    0.8662    0.0000 N   0  0  0  0  0  0  0  0  0  0  0  0
    1.9767    0.4537    0.0000 O   0  0  0  0  0  0  0  0  0  0  0  0
   -3.7391   -2.0213    0.0000 O   0  0  0  0  0  0  0  0  0  0  0  0
   -2.3101   -2.8463    0.0000 O   0  0  0  0  0  0  0  0  0  0  0  0
    6.3594    0.0000    0.0000 Cl  0  0  0  0  0  0  0  0  0  0  0  0
    3.4056   -0.3712    0.0000 O   0  0  0  0  0  0  0  0  0  0  0  0
    1.9767    2.1038    0.0000 O   0  0  0  0  0  0  0  0  0  0  0  0
    1.2622    0.8662    0.0000 C   0  0  0  0  0  0  0  0  0  0  0  0
    0.5478    0.4537    0.0000 C   0  0  0  0  0  0  0  0  0  0  0  0
    4.1201    1.6913    0.0000 C   0  0  0  0  0  0  0  0  0  0  0  0
   -0.1667    1.6912    0.0000 C   0  0  0  0  0  0  0  0  0  0  0  0
    3.4056    2.1038    0.0000 C   0  0  0  0  0  0  0  0  0  0  0  0
    4.1201    0.8663    0.0000 C   0  0  0  0  0  0  0  0  0  0  0  0
   -3.0246   -3.2588    0.0000 C   0  0  0  0  0  0  0  0  0  0  0  0
   -3.7391   -2.8463    0.0000 C   0  0  0  0  0  0  0  0  0  0  0  0
    1.9767    2.9288    0.0000 C   0  0  0  0  0  0  0  0  0  0  0  0
    4.1201   -0.7837    0.0000 C   0  0  0  0  0  0  0  0  0  0  0  0
  1  2  1  0  0  0  0
  1  4  2  0  0  0  0
  3  4  1  0  0  0  0
  2  5  2  0  0  0  0
  3  6  2  0  0  0  0
  5  6  1  0  0  0  0
  3  7  1  0  0  0  0
  6  8  1  0  0  0  0
  7 10  2  0  0  0  0
  8 11  2  0  0  0  0
 10 11  1  0  0  0  0
  2 12  1  0  0  0  0
  9 13  2  0  0  0  0
  9 14  1  0  0  0  0
  4 15  1  0  0  0  0
  9 16  1  0  0  0  0
 10 17  1  0  0  0  0
 11 18  1  0  0  0  0
 14 20  1  0  0  0  0
 13 21  1  0  0  0  0
 16 22  1  0  0  0  0
 12 23  1  0  0  0  0
 22 23  1  0  0  0  0
 12 25  1  0  0  0  0
 13 26  1  0  0  0  0
 24 26  2  0  0  0  0
 14 27  2  0  0  0  0
 24 27  1  0  0  0  0
 18 28  1  0  0  0  0
 17 29  1  0  0  0  0
 21 30  1  0  0  0  0
 20 31  1  0  0  0  0
M  END