
  SciTegic11061219412D

 36 37  0  0  0  0            999 V2000
    0.9893   -4.9129    0.0000 C   0  0
    1.8074   -4.8210    0.0000 N   0  0
    1.9702   -4.0113    0.0000 C   0  0
    1.2522   -3.6064    0.0000 N   0  0
    0.6428   -4.1616    0.0000 C   0  0
    0.5802   -5.6392    0.0000 C   0  0
    1.0018   -6.3487    0.0000 S   0  0
    2.7215   -3.6732    0.0000 C   0  0
   11.2867   -3.1305    0.0000 C   0  0
   -0.2254   -5.8228    0.0000 C   0  0
   11.1197   -3.9362    0.0000 C   0  0
    0.4550   -6.9665    0.0000 C   0  0
   10.6606   -2.5838    0.0000 C   0  0
   -0.3088   -6.6410    0.0000 C   0  0
    2.7215   -2.8425    0.0000 C   0  0
    3.4353   -4.0864    0.0000 C   0  0
   10.3350   -4.1991    0.0000 C   0  0
    4.8711   -2.4335    0.0000 O   0  0
    4.1490   -2.8467    0.0000 C   0  0
    9.8800   -2.8467    0.0000 C   0  0
    6.3029   -2.4335    0.0000 C   0  0  2  0  0  0
    5.5849   -2.8467    0.0000 C   0  0
    3.4353   -2.4335    0.0000 C   0  0
    4.1490   -3.6732    0.0000 C   0  0
    9.7214   -3.6565    0.0000 C   0  0
   12.0631   -2.8676    0.0000 O   0  0
    7.7304   -2.4335    0.0000 N   0  0
   11.7375   -4.4871    0.0000 O   0  0
    6.3029   -1.6070    0.0000 O   0  0
    7.0166   -2.8467    0.0000 C   0  0
    8.4442   -2.8467    0.0000 C   0  0
    9.1662   -2.4335    0.0000 C   0  0
   12.6892   -3.4102    0.0000 C   0  0
   11.5747   -5.2969    0.0000 C   0  0
    5.9518   -6.4821    0.0000 Cl  0  0
    8.3679   -6.5116    0.0000 Cl  0  0
  2  1  1  0
  3  2  2  0
  4  5  1  0
  5  1  2  0
  6  1  1  0
  7  6  1  0
  8  3  1  0
  9 13  1  0
 10  6  2  0
 11 17  1  0
 12  7  1  0
 13 20  2  0
 14 10  1  0
 15  8  2  0
 16  8  1  0
 17 25  2  0
 18 19  1  0
 19 24  1  0
 20 32  1  0
 21 22  1  0
 22 18  1  0
 23 15  1  0
 24 16  2  0
 25 20  1  0
 26  9  1  0
 27 30  1  0
 28 11  1  0
 21 29  1  6
 30 21  1  0
 31 27  1  0
 32 31  1  0
 33 26  1  0
 34 28  1  0
  3  4  1  0
 14 12  2  0
 23 19  2  0
 11  9  2  0
M  END