
  SciTegic01161211252D

 34 34  0  0  0  0            999 V2000
   -1.0333    0.2333    0.0000 C   0  0  1  0  0  0
   -1.7500    0.6458    0.0000 C   0  0
    1.1250    0.6458    0.0000 C   0  0  1  0  0  0
    1.8375    0.2333    0.0000 C   0  0
   -0.3125    0.6458    0.0000 C   0  0  2  0  0  0
   -2.4625    0.2333    0.0000 N   0  0
    2.5625    0.6458    0.0000 N   0  0
    0.4000    0.2333    0.0000 C   0  0  2  0  0  0
   -3.1833    0.6458    0.0000 C   0  0
    3.2750    0.2333    0.0000 C   0  0
   -1.0333   -0.6042    0.0000 O   0  0
   -3.8958    0.2333    0.0000 C   0  0  2  0  0  0
    3.9875    0.6458    0.0000 C   0  0  2  0  0  0
    1.1250    1.4708    0.0000 O   0  0
   -1.7500    1.4708    0.0000 O   0  0
    1.8375   -0.6042    0.0000 O   0  0
   -3.1833    1.4708    0.0000 O   0  0
    3.2750   -0.6000    0.0000 O   0  0
   -0.3125    1.4708    0.0000 O   0  0
    0.4000   -0.6042    0.0000 O   0  0
   -0.6250   -1.3042    0.0000 C   0  0
   -3.9000   -0.6000    0.0000 C   0  0
    3.9875    1.4708    0.0000 C   0  0
   -4.6125    0.6458    0.0000 C   0  0
    4.7000    0.2333    0.0000 C   0  0
   -4.6125   -1.0042    0.0000 C   0  0
   -3.1833   -1.0042    0.0000 C   0  0
    3.2667    1.8833    0.0000 C   0  0
    4.7000    1.8833    0.0000 C   0  0
   -1.0375   -2.0042    0.0000 C   0  0
    0.1875   -1.3042    0.0000 C   0  0
    0.5917   -2.0167    0.0000 C   0  0
   -0.6375   -2.7167    0.0000 C   0  0
    0.1792   -2.7167    0.0000 C   0  0
  2  1  1  0
  3  8  1  0
  4  3  1  0
  5  1  1  0
  6  2  1  0
  7  4  1  0
  8  5  1  0
  9  6  1  0
 10  7  1  0
  1 11  1  1
 12  9  1  0
 13 10  1  0
  3 14  1  1
 15  2  2  0
 16  4  2  0
 17  9  2  0
 18 10  2  0
  5 19  1  1
  8 20  1  1
 21 11  1  0
 12 22  1  6
 13 23  1  6
 24 12  1  0
 25 13  1  0
 26 22  1  0
 27 22  1  0
 28 23  1  0
 29 23  1  0
 30 21  2  0
 31 21  1  0
 32 31  2  0
 33 30  1  0
 34 32  1  0
 33 34  2  0
M  END