
  SciTegic12011113542D

 33 37  0  0  0  0            999 V2000
    0.8478   -1.8291    0.0000 C   0  0  2  0  0  0
    0.0936   -2.1638    0.0000 C   0  0
    0.7605   -2.6496    0.0000 O   0  0
   -4.2809    0.8126    0.0000 C   0  0
   -4.2822   -0.0148    0.0000 C   0  0
   -3.5672   -0.4277    0.0000 C   0  0
   -3.5690    1.2254    0.0000 C   0  0
   -2.8536    0.8163    0.0000 C   0  0
   -2.8528   -0.0107    0.0000 C   0  0
   -2.1375   -0.4216    0.0000 N   0  0
   -2.1431    1.2304    0.0000 C   0  0
   -1.4271    0.8232    0.0000 C   0  0
   -1.4240   -0.0038    0.0000 C   0  0
   -0.6416    1.0816    0.0000 C   0  0
   -0.1529    0.4145    0.0000 N   0  0
   -0.6371   -0.2510    0.0000 C   0  0
   -0.3026   -1.0010    0.0000 C   0  0
    0.6614    0.3311    0.0000 C   0  0
    1.1438    1.0004    0.0000 O   0  0
    0.9985   -0.4161    0.0000 C   0  0
    0.5149   -1.0818    0.0000 C   0  0
    1.6651   -1.9173    0.0000 C   0  0
    2.1487   -1.2517    0.0000 O   0  0
    1.8148   -0.4979    0.0000 C   0  0
    1.9998   -2.6715    0.0000 O   0  0
   -0.5732   -1.6779    0.0000 C   0  0
   -2.1475    2.0555    0.0000 C   0  0
   -1.4351    2.4718    0.0000 N   0  0
   -0.7185    2.0631    0.0000 O   0  0
   -0.0061    2.4794    0.0000 C   0  0
    0.7107    2.0707    0.0000 C   0  0
    1.4229    2.4870    0.0000 C   0  0
    2.1397    2.0782    0.0000 O   0  0
 15 16  1  0
  4  5  2  0
 16 17  2  0
 17 21  1  0
  8  9  1  0
 20 18  1  0
 18 15  1  0
  1  3  1  1
 18 19  2  0
 20 21  2  0
  9 10  1  0
 10 13  2  0
  5  6  1  0
 12 11  2  0
 11  8  1  0
 20 24  1  0
 21  1  1  0
  1 22  1  0
 22 23  1  0
 23 24  1  0
 12 13  1  0
 22 25  2  0
  6  9  2  0
  2 26  1  0
 11 27  1  0
  8  7  2  0
 27 28  2  0
 13 16  1  0
 28 29  1  0
 15 14  1  0
 29 30  1  0
 14 12  1  0
 30 31  1  0
  7  4  1  0
 31 32  1  0
  1  2  1  0
 32 33  1  0
M  END