
  CDK    9/16/09,9:47

 39 42  0  0  0  0  0  0  0  0999 V2000
    2.8328   -8.9526    0.0000 N   0  0  0  0  0  0  0  0  0  0  0  0
    2.2764   -8.3437    0.0000 C   0  0  0  0  0  0  0  0  0  0  0  0
    1.5249   -8.6887    0.0000 C   0  0  0  0  0  0  0  0  0  0  0  0
    2.2835   -7.5140    0.0000 C   0  0  0  0  0  0  0  0  0  0  0  0
    2.9997   -7.1075    0.0000 C   0  0  0  0  0  0  0  0  0  0  0  0
    3.5522   -8.5481    0.0000 C   0  0  0  0  0  0  0  0  0  0  0  0
    4.2599   -8.9720    0.0000 C   0  0  0  0  0  0  0  0  0  0  0  0
    4.9861   -8.5671    0.0000 C   0  0  0  0  0  0  0  0  0  0  0  0
    5.6930   -8.9879    0.0000 C   0  0  0  0  0  0  0  0  0  0  0  0
    6.4127   -8.5839    0.0000 C   0  0  0  0  0  0  0  0  0  0  0  0
    7.1185   -9.0042    0.0000 C   0  0  0  0  0  0  0  0  0  0  0  0
    7.8434   -8.6037    0.0000 C   0  0  0  0  0  0  0  0  0  0  0  0
    8.5479   -9.0218    0.0000 O   0  0  0  0  0  0  0  0  0  0  0  0
    7.8532   -7.7772    0.0000 O   0  0  0  0  0  0  0  0  0  0  0  0
    4.9916   -7.7455    0.0000 O   0  0  0  0  0  0  0  0  0  0  0  0
    6.4181   -7.7576    0.0000 O   0  0  0  0  0  0  0  0  0  0  0  0
    0.8078   -8.2820    0.0000 C   0  0  0  0  0  0  0  0  0  0  0  0
    0.0748   -8.6493    0.0000 N   0  0  0  0  0  0  0  0  0  0  0  0
    0.8013   -7.4619    0.0000 O   0  0  0  0  0  0  0  0  0  0  0  0
   -0.6105   -8.1970    0.0000 C   0  0  0  0  0  0  0  0  0  0  0  0
   -1.3328   -8.5890    0.0000 C   0  0  0  0  0  0  0  0  0  0  0  0
   -2.0311   -8.1604    0.0000 C   0  0  0  0  0  0  0  0  0  0  0  0
   -2.7541   -8.5519    0.0000 C   0  0  0  0  0  0  0  0  0  0  0  0
   -2.7733   -9.3768    0.0000 C   0  0  0  0  0  0  0  0  0  0  0  0
   -2.0680   -9.8061    0.0000 C   0  0  0  0  0  0  0  0  0  0  0  0
   -1.3461   -9.4058    0.0000 C   0  0  0  0  0  0  0  0  0  0  0  0
    1.6124   -9.5038    0.0000 C   0  0  0  0  0  0  0  0  0  0  0  0
    2.4203   -9.6712    0.0000 C   0  0  0  0  0  0  0  0  0  0  0  0
    2.7983  -10.4109    0.0000 C   0  0  0  0  0  0  0  0  0  0  0  0
    0.9748  -10.0364    0.0000 C   0  0  0  0  0  0  0  0  0  0  0  0
    2.4597  -11.1661    0.0000 C   0  0  0  0  0  0  0  0  0  0  0  0
    0.9945  -10.8663    0.0000 C   0  0  0  0  0  0  0  0  0  0  0  0
    1.6567  -11.3664    0.0000 C   0  0  0  0  0  0  0  0  0  0  0  0
   -3.4961   -9.7734    0.0000 C   0  0  0  0  0  0  0  0  0  0  0  0
   -4.2003   -9.3431    0.0000 C   0  0  0  0  0  0  0  0  0  0  0  0
   -4.9229   -9.7378    0.0000 C   0  0  0  0  0  0  0  0  0  0  0  0
   -4.9392  -10.5608    0.0000 C   0  0  0  0  0  0  0  0  0  0  0  0
   -4.2336  -10.9911    0.0000 C   0  0  0  0  0  0  0  0  0  0  0  0
   -3.5138  -10.5940    0.0000 C   0  0  0  0  0  0  0  0  0  0  0  0
 11 12  1  0  0  0  0 
 12 13  1  0  0  0  0 
 12 14  2  0  0  0  0 
  8 15  1  1  0  0  0 
 10 16  1  1  0  0  0 
  3 17  1  0  0  0  0 
 17 18  1  0  0  0  0 
 17 19  2  0  0  0  0 
 18 20  1  0  0  0  0 
 20 21  1  0  0  0  0 
 21 22  2  0  0  0  0 
 22 23  1  0  0  0  0 
 23 24  2  0  0  0  0 
 24 25  1  0  0  0  0 
 25 26  2  0  0  0  0 
 26 21  1  0  0  0  0 
 28  1  1  0  0  0  0 
 27 28  2  0  0  0  0 
  1  2  1  0  0  0  0 
 28 29  1  0  0  0  0 
  2  3  2  0  0  0  0 
 27 30  1  0  0  0  0 
  3 27  1  0  0  0  0 
 29 31  1  0  0  0  0 
  2  4  1  0  0  0  0 
 30 32  1  0  0  0  0 
  4  5  1  0  0  0  0 
 31 33  1  0  0  0  0 
 32 33  1  0  0  0  0 
  1  6  1  0  0  0  0 
  6  7  1  0  0  0  0 
 34 35  2  0  0  0  0 
  7  8  1  0  0  0  0 
 35 36  1  0  0  0  0 
  8  9  1  0  0  0  0 
 36 37  2  0  0  0  0 
  9 10  1  0  0  0  0 
 37 38  1  0  0  0  0 
 10 11  1  0  0  0  0 
 38 39  2  0  0  0  0 
 39 34  1  0  0  0  0 
 24 34  1  0  0  0  0 
M  END