
  SciTegic01091216402D

 14 16  0  0  0  0            999 V2000
   -0.1259    2.1170    0.0000 N   0  0
   -0.1271    1.2928    0.0000 C   0  0
    1.2959    2.1207    0.0000 N   0  0
    0.5832    2.5283    0.0000 C   0  0
    0.5808    3.3502    0.0000 N   0  0
    1.2988    1.2932    0.0000 C   0  0
    0.5815    0.8844    0.0000 C   0  0
    0.5770    0.0634    0.0000 C   0  0
    1.2880   -0.3551    0.0000 C   0  0
    2.0115    0.8811    0.0000 C   0  0
    2.0009    0.0544    0.0000 C   0  0
    2.7838   -0.2113    0.0000 O   0  0
    3.2784    0.4513    0.0000 C   0  0
    2.8011    1.1264    0.0000 C   0  0
  6  3  1  0
  1  2  2  0
  3  4  2  0
  6 10  1  0
  7  8  1  0
  8  9  1  0
  9 11  1  0
 10 11  2  0
  4  1  1  0
  2  7  1  0
  4  5  1  0
  6  7  2  0
 11 12  1  0
 12 13  1  0
 13 14  2  0
 14 10  1  0
M  END