
          11280715012D 1   1.00000     0.00000     0

 29 31  0     0  0            999 V2000
    6.5542   -5.1792    0.0000 C   0  0  0  0  0  0           0  0  0
   10.2292   -6.4250    0.0000 N   0  0  0  0  0  0           0  0  0
    5.8375   -5.5917    0.0000 N   0  0  3  0  0  0           0  0  0
   11.4542   -5.8750    0.0000 N   0  0  0  0  0  0           0  0  0
   11.0417   -6.5917    0.0000 C   0  0  0  0  0  0           0  0  0
   10.1417   -5.5917    0.0000 C   0  0  0  0  0  0           0  0  0
    3.6875   -5.1792    0.0000 C   0  0  3  0  0  0           0  0  0
    6.5542   -4.3500    0.0000 N   0  0  0  0  0  0           0  0  0
    4.4042   -5.5917    0.0000 C   0  0  0  0  0  0           0  0  0
    2.9667   -6.4167    0.0000 N   0  0  0  0  0  0           0  0  0
    3.6875   -4.3500    0.0000 C   0  0  0  0  0  0           0  0  0
   10.9042   -5.2542    0.0000 C   0  0  0  0  0  0           0  0  0
    2.9667   -5.5917    0.0000 C   0  0  0  0  0  0           0  0  0
    5.1167   -5.1792    0.0000 C   0  0  0  0  0  0           0  0  0
    7.2750   -5.5917    0.0000 N   0  0  0  0  0  0           0  0  0
    2.9667   -3.9417    0.0000 C   0  0  0  0  0  0           0  0  0
    4.4042   -3.9375    0.0000 C   0  0  0  0  0  0           0  0  0
    3.6917   -2.6917    0.0000 C   0  0  0  0  0  0           0  0  0
    4.4042   -3.1125    0.0000 C   0  0  0  0  0  0           0  0  0
    2.9667   -3.1125    0.0000 C   0  0  0  0  0  0           0  0  0
    3.6917   -1.8667    0.0000 F   0  0  0  0  0  0           0  0  0
    9.4250   -5.1792    0.0000 C   0  0  0  0  0  0           0  0  0
    5.8375   -6.4250    0.0000 C   0  0  0  0  0  0           0  0  0
    2.2542   -6.8292    0.0000 C   0  0  0  0  0  0           0  0  0
    2.2500   -5.1750    0.0000 C   0  0  0  0  0  0           0  0  0
    7.9917   -5.1792    0.0000 C   0  0  0  0  0  0           0  0  0
    8.7125   -5.5917    0.0000 C   0  0  0  0  0  0           0  0  0
    1.5292   -6.4167    0.0000 C   0  0  0  0  0  0           0  0  0
    1.5292   -5.5917    0.0000 C   0  0  0  0  0  0           0  0  0
  2  6  1  0     0  0
  3  1  1  0     0  0
  4 12  1  0     0  0
  5  2  2  0     0  0
  6 22  1  0     0  0
  7  9  1  0     0  0
  8  1  2  0     0  0
  9 14  1  0     0  0
 10 13  1  0     0  0
 11  7  1  0     0  0
 12  6  2  0     0  0
 13  7  1  0     0  0
 14  3  1  0     0  0
 15  1  1  0     0  0
 16 11  1  0     0  0
 17 11  2  0     0  0
 18 19  2  0     0  0
 19 17  1  0     0  0
 20 16  2  0     0  0
 21 18  1  0     0  0
 22 27  1  0     0  0
 23  3  1  0     0  0
 24 10  2  0     0  0
 25 13  2  0     0  0
 26 15  1  0     0  0
 27 26  1  0     0  0
 28 29  2  0     0  0
 29 25  1  0     0  0
  5  4  1  0     0  0
 18 20  1  0     0  0
 28 24  1  0     0  0
M  END