
  SciTegic01161211252D

 98106  0  0  0  0            999 V2000
    9.6362   -8.3496    0.0000 O   0  0
    9.6362   -6.6970    0.0000 C   0  0
    8.9198   -7.1130    0.0000 C   0  0  1  0  0  0
    8.9207   -7.9395    0.0000 C   0  0  1  0  0  0
    8.2740   -8.4635    0.0000 C   0  0
    8.2659   -6.5990    0.0000 O   0  0
    7.4677   -8.2863    0.0000 C   0  0
   10.9268   -6.5280    0.0000 O   0  0
   10.3476   -7.1154    0.0000 C   0  0  1  0  0  0
   10.3535   -7.9398    0.0000 C   0  0  2  0  0  0
   10.9367   -8.5188    0.0000 C   0  0
   11.7654   -8.5171    0.0000 C   0  0
   12.3444   -7.9299    0.0000 C   0  0  1  0  0  0
   11.7574   -6.5292    0.0000 C   0  0  2  0  0  0
   12.3385   -7.1054    0.0000 C   0  0  2  0  0  0
   13.1239   -6.8865    0.0000 O   0  0
   11.9578   -5.7383    0.0000 C   0  0
   12.7488   -5.5194    0.0000 C   0  0  2  0  0  0
   13.3317   -6.0993    0.0000 C   0  0  2  0  0  0
   14.1212   -5.8806    0.0000 C   0  0
   12.9513   -4.7291    0.0000 O   0  0
   13.7464   -4.5104    0.0000 C   0  0  2  0  0  0
   14.3322   -5.0912    0.0000 C   0  0  2  0  0  0
   15.1233   -4.8769    0.0000 O   0  0
   13.9521   -3.7153    0.0000 C   0  0
   14.7488   -3.4968    0.0000 C   0  0  2  0  0  0
   15.3335   -4.0845    0.0000 C   0  0  2  0  0  0
   16.1301   -3.8700    0.0000 C   0  0
   16.3434   -3.0723    0.0000 C   0  0
   15.7584   -2.4853    0.0000 C   0  0  2  0  0  0
   14.9607   -2.6991    0.0000 O   0  0
    7.1034   -7.5446    0.0000 C   0  0  1  0  0  0
    7.4524   -6.7953    0.0000 C   0  0  1  0  0  0
    6.9789   -6.1225    0.0000 C   0  0
    6.2854   -7.6211    0.0000 O   0  0
    5.8087   -6.9434    0.0000 C   0  0  1  0  0  0
    6.1513   -6.1984    0.0000 C   0  0  1  0  0  0
    5.6788   -5.5291    0.0000 O   0  0
    4.9933   -7.0231    0.0000 C   0  0
    4.5174   -6.3530    0.0000 C   0  0  1  0  0  0
    4.8583   -5.6076    0.0000 C   0  0  1  0  0  0
    4.3857   -4.9453    0.0000 C   0  0
    3.7041   -6.4361    0.0000 O   0  0
    3.2326   -5.7646    0.0000 C   0  0  1  0  0  0
    3.5674   -5.0174    0.0000 C   0  0  1  0  0  0
    3.0932   -4.3537    0.0000 O   0  0
    2.2764   -4.4362    0.0000 C   0  0  2  0  0  0
    1.9417   -5.1834    0.0000 C   0  0  2  0  0  0
    2.4148   -5.8521    0.0000 C   0  0
    8.9185   -8.7679    0.0000 C   0  0
   10.3469   -8.7679    0.0000 C   0  0
   13.1381   -8.1424    0.0000 C   0  0
   12.9228   -7.6840    0.0000 H   0  0
   14.0447   -6.5111    0.0000 H   0  0
   14.9153   -5.6723    0.0000 C   0  0
   15.9169   -4.6686    0.0000 H   0  0
   16.1750   -1.7703    0.0000 C   0  0  1  0  0  0
   15.0378   -2.0719    0.0000 H   0  0
   16.9991   -1.7706    0.0000 C   0  0
   16.3806   -0.9681    0.0000 O   0  0
   15.4535   -1.3503    0.0000 C   0  0
   17.4155   -1.0556    0.0000 C   0  0
   18.2396   -1.0559    0.0000 C   0  0
   18.6560   -0.3410    0.0000 C   0  0
   18.6557   -1.7711    0.0000 C   0  0
   19.4797   -1.7714    0.0000 C   0  0
   19.8956   -2.4865    0.0000 C   0  0
   17.1459   -2.8581    0.0000 C   0  0
   14.1567   -2.9086    0.0000 H   0  0
   13.1551   -3.9207    0.0000 H   0  0
   12.1600   -4.9287    0.0000 H   0  0
   11.3338   -5.8096    0.0000 H   0  0
   10.3407   -6.2871    0.0000 H   0  0
    8.9123   -6.2871    0.0000 H   0  0
    7.8580   -6.0738    0.0000 H   0  0
    6.5585   -5.4759    0.0000 H   0  0
    5.2653   -4.8863    0.0000 H   0  0
    3.9764   -4.2968    0.0000 H   0  0
    2.6833   -3.7136    0.0000 C   0  0
    1.3499   -5.7653    0.0000 H   0  0
    2.8121   -6.4774    0.0000 H   0  0
    4.0969   -7.0647    0.0000 H   0  0
    5.3878   -7.6564    0.0000 H   0  0
    6.6853   -8.2566    0.0000 H   0  0
    1.1365   -4.9624    0.0000 O   0  0
    1.6838   -3.8425    0.0000 C   0  0
    0.8854   -4.0565    0.0000 C   0  0
    0.3022   -3.4733    0.0000 O   0  0
   -0.4958   -3.6842    0.0000 S   0  0
    0.5476   -5.5441    0.0000 S   0  0
   -0.2484   -5.3256    0.0000 O   0  5
   -0.2809   -4.4822    0.0000 O   0  5
   -0.7107   -2.8860    0.0000 O   0  0
   -1.2981   -3.8991    0.0000 O   0  0
   -0.0384   -6.1267    0.0000 O   0  0
    0.9569   -6.2556    0.0000 O   0  0
    0.3414   -0.5657    0.0000 Na  0  3
    0.2790   -8.1744    0.0000 Na  0  3
 44 45  1  0
  5  7  1  0
  6 33  1  0
  7 32  1  0
  1 10  1  0
 18 21  1  0
 19 20  1  0
 44 49  1  0
 45 46  1  0
 46 47  1  0
 47 48  1  0
 48 49  1  0
 20 23  1  0
  4 50  1  1
 22 21  1  0
 10 51  1  1
 22 23  1  0
 13 52  1  1
  9  2  1  0
 15 53  1  1
 19 54  1  1
 23 55  1  1
  3  4  1  0
 27 56  1  1
 22 25  1  0
 30 57  1  0
 23 24  1  0
 30 58  1  1
 24 27  1  0
 57 59  1  0
 26 25  1  0
 57 60  1  0
 26 27  1  0
 57 61  1  1
 59 62  2  0
  8 14  1  0
 62 63  1  0
  8  9  1  0
 63 64  2  0
  9 10  1  0
 63 65  1  0
 10 11  1  0
 65 66  1  0
 11 12  1  0
 66 67  2  0
 26 31  1  0
 29 68  2  0
 27 28  1  0
 26 69  1  6
 28 29  1  0
 22 70  1  6
 29 30  1  0
 18 71  1  6
 30 31  1  0
 14 72  1  6
 32 33  1  0
  9 73  1  6
 12 13  1  0
  3 74  1  6
 13 15  1  0
 33 75  1  6
 14 15  1  0
 37 76  1  6
  4  5  1  0
 41 77  1  6
 32 35  1  0
 45 78  1  6
 33 34  1  0
 47 79  1  6
 34 37  1  0
 48 80  1  1
 36 35  1  0
 44 81  1  1
 36 37  1  0
 40 82  1  1
  3  2  1  0
 36 83  1  1
  3  6  1  0
 32 84  1  1
  4  1  1  0
 48 85  1  0
 14 17  1  0
 47 86  1  0
 36 39  1  0
 86 87  1  0
 37 38  1  0
 87 88  1  0
 38 41  1  0
 40 39  1  0
 40 41  1  0
 85 90  1  0
 15 16  1  0
 90 91  1  0
 16 19  1  0
 89 92  1  0
 18 17  1  0
 89 93  2  0
 18 19  1  0
 89 94  2  0
 40 43  1  0
 90 95  2  0
 41 42  1  0
 90 96  2  0
 42 45  1  0
 44 43  1  0
 88 89  1  0
M  CHG  4  91  -1  92  -1  97   1  98   1
M  END