
  SciTegic04021211102D

 27 29  0  0  0  0            999 V2000
   14.0766  -18.0985    0.0000 C   0  0
   14.0753  -18.9235    0.0000 C   0  0
   14.7909  -19.3351    0.0000 C   0  0
   15.5081  -18.9230    0.0000 C   0  0
   15.5052  -18.0946    0.0000 C   0  0
   14.7890  -17.6826    0.0000 C   0  0
   16.2110  -17.6776    0.0000 C   0  0
   16.9282  -18.0922    0.0000 C   0  0
   17.6412  -17.6745    0.0000 C   0  0
   17.6696  -16.8511    0.0000 N   0  0
   16.9163  -16.4429    0.0000 C   0  0
   16.1752  -16.8587    0.0000 N   0  0
   14.7907  -20.1619    0.0000 C   0  0
   15.5058  -20.5733    0.0000 N   0  0
   16.2166  -20.1623    0.0000 C   0  0
   16.9317  -20.5737    0.0000 C   0  0
   14.7865  -16.8601    0.0000 C   0  0
   16.9100  -15.6161    0.0000 N   0  0
   17.6469  -20.1626    0.0000 N   0  0
   18.3620  -20.5740    0.0000 C   0  0
   19.0729  -20.1629    0.0000 C   0  0
   14.0408  -20.5954    0.0000 O   0  0
   19.0724  -19.3418    0.0000 C   0  0
   18.3609  -18.9317    0.0000 C   0  0
   18.3604  -18.1105    0.0000 S   0  0
   18.3629  -21.4402    0.0000 O   0  0
   13.3252  -19.3566    0.0000 C   0  0
  3 13  1  0
  1  2  2  0
 13 14  1  0
  3  4  2  0
 14 15  1  0
  7  8  2  0
 15 16  1  0
  6 17  1  0
  8  9  1  0
 11 18  1  0
  4  5  1  0
 16 19  1  0
  9 10  2  0
 19 20  1  0
  2  3  1  0
 20 21  1  0
 10 11  1  0
 13 22  2  0
  5  6  2  0
 21 23  1  0
 11 12  2  0
 23 24  1  0
 12  7  1  0
 24 25  1  0
  9 25  1  0
  5  7  1  0
 20 26  2  0
  6  1  1  0
  2 27  1  0
M  END