
          11280714552D 1   1.00000     0.00000     0

 34 37  0     0  0            999 V2000
    2.8667   -6.7542    0.0000 C   0  0  0  0  0  0           0  0  0
    3.5792   -7.1542    0.0000 C   0  0  0  0  0  0           0  0  0
    2.8667   -5.9292    0.0000 C   0  0  3  0  0  0           0  0  0
    7.1417   -6.7500    0.0000 N   0  0  3  0  0  0           0  0  0
    5.7167   -5.9292    0.0000 N   0  0  3  0  0  0           0  0  0
    2.1542   -7.1625    0.0000 C   0  0  0  0  0  0           0  0  0
    3.5792   -7.9875    0.0000 C   0  0  0  0  0  0           0  0  0
    2.1500   -5.5167    0.0000 C   0  0  0  0  0  0           0  0  0
    8.5667   -6.7542    0.0000 C   0  0  0  0  0  0           0  0  0
    9.2875   -7.1667    0.0000 C   0  0  0  0  0  0           0  0  0
    2.1542   -4.6917    0.0000 C   0  0  0  0  0  0           0  0  0
    1.4417   -5.9292    0.0000 C   0  0  0  0  0  0           0  0  0
    2.8625   -8.4000    0.0000 C   0  0  0  0  0  0           0  0  0
    4.2917   -6.7417    0.0000 Cl  0  0  0  0  0  0           0  0  0
    6.4250   -7.1625    0.0000 C   0  0  0  0  0  0           0  0  0
    5.7167   -6.7500    0.0000 C   0  0  0  0  0  0           0  0  0
    7.1417   -5.9250    0.0000 C   0  0  0  0  0  0           0  0  0
    6.4292   -5.5042    0.0000 C   0  0  0  0  0  0           0  0  0
    2.1500   -7.9792    0.0000 C   0  0  0  0  0  0           0  0  0
    3.5792   -5.5167    0.0000 O   0  0  0  0  0  0           0  0  0
    0.7292   -4.6917    0.0000 C   0  0  0  0  0  0           0  0  0
    7.8542   -7.1667    0.0000 C   0  0  0  0  0  0           0  0  0
    1.4417   -4.2792    0.0000 C   0  0  0  0  0  0           0  0  0
    0.7250   -5.5167    0.0000 C   0  0  0  0  0  0           0  0  0
   10.0000   -6.7625    0.0000 C   0  0  0  0  0  0           0  0  0
    2.8542   -9.2250    0.0000 Cl  0  0  0  0  0  0           0  0  0
    0.0125   -4.2750    0.0000 F   0  0  0  0  0  0           0  0  0
    5.0042   -5.5167    0.0000 C   0  0  0  0  0  0           0  0  0
    4.2917   -5.9292    0.0000 C   0  0  0  0  0  0           0  0  0
   10.7042   -7.1792    0.0000 C   0  0  0  0  0  0           0  0  0
   10.0000   -5.9417    0.0000 C   0  0  0  0  0  0           0  0  0
   10.7167   -5.5292    0.0000 C   0  0  0  0  0  0           0  0  0
   11.4250   -6.7750    0.0000 C   0  0  0  0  0  0           0  0  0
   11.4292   -5.9500    0.0000 C   0  0  0  0  0  0           0  0  0
  2  1  1  0     0  0
  3  1  1  0     0  0
  4 17  1  0     0  0
  5 28  1  0     0  0
  6  1  2  0     0  0
  7  2  2  0     0  0
  8  3  1  0     0  0
  9 22  1  0     0  0
 10  9  2  0     0  0
 11  8  1  0     0  0
 12  8  2  0     0  0
 13 19  2  0     0  0
 14  2  1  0     0  0
 15 16  1  0     0  0
 16  5  1  0     0  0
 17 18  1  0     0  0
 18  5  1  0     0  0
 19  6  1  0     0  0
 20  3  1  0     0  0
 21 24  2  0     0  0
 22  4  1  0     0  0
 23 11  2  0     0  0
 24 12  1  0     0  0
 25 10  1  0     0  0
 26 13  1  0     0  0
 27 21  1  0     0  0
 28 29  1  0     0  0
 29 20  1  0     0  0
 30 25  2  0     0  0
 31 25  1  0     0  0
 32 31  2  0     0  0
 33 30  1  0     0  0
 34 32  1  0     0  0
  7 13  1  0     0  0
 23 21  1  0     0  0
 15  4  1  0     0  0
 33 34  2  0     0  0
M  END