
          11280715482D 1   1.00000     0.00000     0

 28 31  0     0  0            999 V2000
    1.3167   -2.0167    0.0000 C   0  0  0  0  0  0           0  0  0
    1.2000   -1.1917    0.0000 C   0  0  0  0  0  0           0  0  0
    2.1292   -2.1542    0.0000 N   0  0  0  0  0  0           0  0  0
    1.9417   -0.8292    0.0000 S   0  0  0  0  0  0           0  0  0
    2.5167   -1.4292    0.0000 C   0  0  0  0  0  0           0  0  0
    0.4875   -0.7792    0.0000 C   0  0  0  0  0  0           0  0  0
    0.7542   -2.6167    0.0000 C   0  0  0  0  0  0           0  0  0
   -0.2333    0.4583    0.0000 C   0  0  0  0  0  0           0  0  0
   -0.9458    0.0458    0.0000 N   0  0  0  0  0  0           0  0  0
    0.4875    0.0458    0.0000 C   0  0  0  0  0  0           0  0  0
    0.9875   -3.3917    0.0000 C   0  0  0  0  0  0           0  0  0
   -0.2208    1.2875    0.0000 N   0  0  0  0  0  0           0  0  0
    0.5042    1.6958    0.0000 C   0  0  0  0  0  0           0  0  0
   -0.9458   -0.7792    0.0000 C   0  0  0  0  0  0           0  0  0
    0.4167   -3.9917    0.0000 C   0  0  0  0  0  0           0  0  0
    1.2250    1.2708    0.0000 C   0  0  0  0  0  0           0  0  0
   -0.2333   -1.1917    0.0000 C   0  0  0  0  0  0           0  0  0
    3.3292   -1.3625    0.0000 C   0  0  0  0  0  0           0  0  0
   -0.0458   -2.4250    0.0000 C   0  0  0  0  0  0           0  0  0
   -0.6083   -3.0250    0.0000 C   0  0  0  0  0  0           0  0  0
   -0.3708   -3.8042    0.0000 C   0  0  0  0  0  0           0  0  0
    0.6417   -4.7917    0.0000 C   0  0  0  0  0  0           0  0  0
    1.9375    1.6833    0.0000 C   0  0  0  0  0  0           0  0  0
    1.2250    0.4458    0.0000 C   0  0  0  0  0  0           0  0  0
    3.6750   -0.6125    0.0000 C   0  0  0  0  0  0           0  0  0
    2.6542    1.2708    0.0000 C   0  0  0  0  0  0           0  0  0
    1.9375    0.0333    0.0000 C   0  0  0  0  0  0           0  0  0
    2.6542    0.4458    0.0000 C   0  0  0  0  0  0           0  0  0
  2  1  2  0     0  0
  3  1  1  0     0  0
  4  2  1  0     0  0
  5  3  2  0     0  0
  6  2  1  0     0  0
  7  1  1  0     0  0
  8 10  1  0     0  0
  9 14  1  0     0  0
 10  6  2  0     0  0
 11  7  1  0     0  0
 12  8  1  0     0  0
 13 12  1  0     0  0
 14 17  2  0     0  0
 15 11  2  0     0  0
 16 13  1  0     0  0
 17  6  1  0     0  0
 18  5  1  0     0  0
 19  7  2  0     0  0
 20 19  1  0     0  0
 21 20  2  0     0  0
 22 15  1  0     0  0
 23 16  1  0     0  0
 24 16  2  0     0  0
 25 18  1  0     0  0
 26 23  2  0     0  0
 27 24  1  0     0  0
 28 27  2  0     0  0
  5  4  1  0     0  0
 15 21  1  0     0  0
  8  9  2  0     0  0
 28 26  1  0     0  0
M  END