
  SciTegic04151115542D

 22 24  0  0  0  0            999 V2000
    3.0848   -6.5247    0.0000 N   0  0
    3.0838   -7.3518    0.0000 C   0  0
    3.7984   -7.7646    0.0000 N   0  0
    3.7968   -6.1120    0.0000 C   0  0
    5.3068   -7.6117    0.0000 N   0  0
    5.7960   -6.9362    0.0000 C   0  0
    5.3045   -6.2623    0.0000 C   0  0
    4.5118   -6.5214    0.0000 C   0  0
    4.5132   -7.3554    0.0000 C   0  0
    3.7945   -5.2870    0.0000 N   0  0
    4.5078   -4.8726    0.0000 C   0  0  1  0  0  0
    3.0790   -4.8766    0.0000 C   0  0
    5.2212   -5.2849    0.0000 C   0  0
    5.9325   -4.8740    0.0000 N   0  0
    5.9345   -4.0487    0.0000 C   0  0
    5.2191   -3.6359    0.0000 C   0  0
    4.5016   -4.0485    0.0000 C   0  0  1  0  0  0
    3.7860   -3.6381    0.0000 C   0  0
    6.6465   -5.2872    0.0000 C   0  0
    6.6456   -6.1122    0.0000 O   0  0
    7.3614   -4.8755    0.0000 C   0  0
    8.0754   -5.2887    0.0000 O   0  0
  8  9  1  0
 11 10  1  6
 10 12  1  0
 11 13  1  0
  2  3  1  0
  6  7  2  0
  3  9  2  0
  1  2  2  0
  8  4  2  0
 11 17  1  0
 13 14  1  0
 14 15  1  0
 15 16  1  0
 16 17  1  0
  5  6  1  0
 17 18  1  6
  7  8  1  0
 14 19  1  0
  9  5  1  0
 19 20  2  0
  4  1  1  0
 19 21  1  0
  4 10  1  0
 21 22  1  0
M  END