
  SciTegic12231509382D

 31 34  0  0  0  0            999 V2000
    8.6269   -5.1557    0.0000 O   0  0
    8.0748   -4.5426    0.0000 C   0  0
    8.3298   -3.7579    0.0000 C   0  0
    7.7777   -3.1448    0.0000 C   0  0
    8.0327   -2.3602    0.0000 N   0  0
    7.4806   -1.7471    0.0000 C   0  0
    6.6737   -1.9187    0.0000 N   0  0
    6.1216   -1.3056    0.0000 C   0  0
    6.3766   -0.5209    0.0000 C   0  0
    7.1836   -0.3494    0.0000 C   0  0
    7.7356   -0.9625    0.0000 N   0  0
    7.4385    0.4352    0.0000 C   0  0
    6.9536    1.1026    0.0000 C   0  0
    7.4385    1.7701    0.0000 N   0  0
    8.2231    1.5151    0.0000 N   0  0
    8.9376    1.9276    0.0000 C   0  0
    9.6521    1.5151    0.0000 C   0  0
    9.6521    0.6901    0.0000 C   0  0
    8.9376    0.2776    0.0000 C   0  0
    8.2231    0.6901    0.0000 C   0  0
   10.3665    1.9276    0.0000 C   0  0
   11.0810    2.3401    0.0000 F   0  0
   10.7790    1.2132    0.0000 F   0  0
    9.9540    2.6421    0.0000 F   0  0
    6.1286    1.1026    0.0000 C   0  0
    5.7161    0.3882    0.0000 C   0  0
    4.8911    0.3882    0.0000 C   0  0
    4.4786    1.1026    0.0000 C   0  0
    3.6536    1.1026    0.0000 F   0  0
    4.8911    1.8171    0.0000 C   0  0
    5.7161    1.8171    0.0000 C   0  0
  1  2  1  0
  2  3  1  0
  3  4  1  0
  4  5  1  0
  5  6  1  0
  6  7  2  0
  7  8  1  0
  8  9  2  0
  9 10  1  0
 10 11  2  0
  6 11  1  0
 10 12  1  0
 12 13  1  0
 13 14  2  0
 14 15  1  0
 15 16  1  0
 16 17  2  0
 17 18  1  0
 18 19  2  0
 19 20  1  0
 12 20  2  0
 15 20  1  0
 17 21  1  0
 21 22  1  0
 21 23  1  0
 21 24  1  0
 13 25  1  0
 25 26  2  0
 26 27  1  0
 27 28  2  0
 28 29  1  0
 28 30  1  0
 30 31  2  0
 25 31  1  0
M  END