
  SciTegic02181312462D

 34 37  0  0  0  0            999 V2000
    2.1459   -3.3746    0.0000 N   0  0
    2.8555   -2.9652    0.0000 C   0  0
    2.8527   -2.1425    0.0000 N   0  0
    2.1441   -1.7373    0.0000 C   0  0
    1.4378   -2.9657    0.0000 C   0  0
    1.4391   -2.1446    0.0000 C   0  0
    0.6586   -1.8897    0.0000 N   0  0
    0.1749   -2.5532    0.0000 C   0  0
    0.6566   -3.2181    0.0000 S   0  0
    3.5639   -3.3727    0.0000 N   0  0
    4.2710   -2.9630    0.0000 C   0  0
    4.9760   -3.3709    0.0000 C   0  0
    5.6826   -2.9619    0.0000 C   0  0
    5.6817   -2.1438    0.0000 C   0  0
    4.9684   -1.7365    0.0000 C   0  0
    4.2647   -2.1478    0.0000 C   0  0
    3.5544   -1.7439    0.0000 C   0  0
    6.3907   -3.3697    0.0000 N   0  0
    7.0980   -2.9603    0.0000 C   0  0
    7.8061   -3.3682    0.0000 C   0  0
    7.0971   -2.1431    0.0000 O   0  0
    7.8027   -4.1861    0.0000 C   0  0
    8.5100   -4.5938    0.0000 C   0  0
    9.2183   -4.1844    0.0000 C   0  0
    9.2148   -3.3630    0.0000 C   0  0
    8.5069   -2.9589    0.0000 C   0  0
   -0.6454   -2.5521    0.0000 N   0  0
   -1.0530   -3.2592    0.0000 C   0  0
   -1.8702   -3.2580    0.0000 C   0  0
   -0.6516   -3.9675    0.0000 O   0  0
    9.9206   -2.9511    0.0000 C   0  0
   10.6302   -3.3565    0.0000 C   0  0
   11.3360   -2.9446    0.0000 C   0  0
   12.0406   -2.5363    0.0000 N   0  0
  5  1  1  0
  1  2  2  0
  2  3  1  0
  3  4  2  0
  4  6  1  0
  5  6  2  0
  6  7  1  0
  7  8  2  0
  8  9  1  0
  9  5  1  0
  2 10  1  0
 10 11  1  0
 11 12  2  0
 12 13  1  0
 13 14  2  0
 14 15  1  0
 15 16  2  0
 16 11  1  0
 16 17  1  0
 13 18  1  0
 18 19  1  0
 19 20  1  0
 19 21  2  0
 20 22  2  0
 22 23  1  0
 23 24  2  0
 24 25  1  0
 25 26  2  0
 26 20  1  0
  8 27  1  0
 27 28  1  0
 28 29  1  0
 28 30  2  0
 25 31  1  0
 31 32  1  0
 32 33  1  0
 33 34  3  0
M  END