
  SciTegic06051313522D

 34 37  0  0  0  0            999 V2000
   25.7030  -25.4650    0.0000 N   0  0
   25.7018  -26.2845    0.0000 C   0  0
   26.4099  -26.6935    0.0000 N   0  0
   27.1195  -26.2840    0.0000 C   0  0
   27.1167  -25.4614    0.0000 C   0  0
   26.4081  -25.0561    0.0000 C   0  0
   27.8229  -25.0501    0.0000 C   0  0
   28.5321  -25.4560    0.0000 O   0  0
   27.8198  -24.2329    0.0000 N   0  0
   28.5259  -23.8217    0.0000 C   0  0
   29.2352  -24.2276    0.0000 C   0  0
   29.9414  -23.8163    0.0000 C   0  0
   30.6506  -24.2223    0.0000 N   0  0
   24.9938  -26.6925    0.0000 N   0  0
   27.8279  -26.6915    0.0000 N   0  0
   24.2864  -26.2834    0.0000 C   0  0
   30.7384  -25.0327    0.0000 C   0  0
   31.5383  -25.1996    0.0000 C   0  0
   31.9443  -24.4903    0.0000 O   0  0
   31.3951  -23.8852    0.0000 C   0  0
   31.5609  -23.0850    0.0000 O   0  0
   27.8292  -27.5087    0.0000 C   0  0
   27.1723  -27.9885    0.0000 C   0  0
   27.4260  -28.7653    0.0000 C   0  0
   28.2433  -28.7640    0.0000 C   0  0
   28.4945  -27.9864    0.0000 C   0  0
   23.5784  -26.6914    0.0000 C   0  0
   22.8717  -26.2801    0.0000 C   0  0
   22.1642  -26.6874    0.0000 C   0  0
   22.1631  -27.5055    0.0000 C   0  0
   22.8755  -27.9145    0.0000 C   0  0
   23.5801  -27.5048    0.0000 C   0  0
   22.8737  -25.4629    0.0000 Cl  0  0
   22.8777  -28.7317    0.0000 Cl  0  0
  1  2  2  0
  2  3  1  0
  3  4  2  0
  4  5  1  0
  5  6  2  0
  6  1  1  0
  5  7  1  0
  7  8  2  0
  7  9  1  0
  9 10  1  0
 10 11  1  0
 11 12  1  0
 12 13  1  0
  2 14  1  0
  4 15  1  0
 14 16  1  0
 13 17  1  0
 17 18  1  0
 18 19  1  0
 19 20  1  0
 20 13  1  0
 20 21  2  0
 15 22  1  0
 22 23  1  0
 23 24  1  0
 24 25  1  0
 25 26  1  0
 26 22  1  0
 16 27  1  0
 27 28  2  0
 28 29  1  0
 29 30  2  0
 30 31  1  0
 31 32  2  0
 32 27  1  0
 28 33  1  0
 31 34  1  0
M  END