
          11280714552D 1   1.00000     0.00000     0

 33 36  0     0  0            999 V2000
    2.6667   -5.0625    0.0000 N   0  0  3  0  0  0           0  0  0
    1.9542   -4.6500    0.0000 C   0  0  0  0  0  0           0  0  0
    4.8125   -4.6500    0.0000 N   0  0  3  0  0  0           0  0  0
    6.2417   -3.8292    0.0000 N   0  0  3  0  0  0           0  0  0
    1.2417   -5.0667    0.0000 N   0  0  0  0  0  0           0  0  0
    2.6667   -5.8875    0.0000 C   0  0  0  0  0  0           0  0  0
    3.3792   -4.6500    0.0000 C   0  0  0  0  0  0           0  0  0
    4.0917   -5.0625    0.0000 C   0  0  0  0  0  0           0  0  0
    5.5250   -5.0625    0.0000 C   0  0  0  0  0  0           0  0  0
    4.8042   -3.8250    0.0000 C   0  0  0  0  0  0           0  0  0
    5.5292   -3.4167    0.0000 C   0  0  0  0  0  0           0  0  0
    6.2375   -4.6542    0.0000 C   0  0  0  0  0  0           0  0  0
    1.9542   -6.2917    0.0000 C   0  0  0  0  0  0           0  0  0
    0.5292   -7.1042    0.0000 C   0  0  0  0  0  0           0  0  0
    1.9542   -7.1125    0.0000 C   0  0  0  0  0  0           0  0  0
    1.2417   -5.8792    0.0000 C   0  0  0  0  0  0           0  0  0
    0.5375   -6.2875    0.0000 C   0  0  0  0  0  0           0  0  0
    1.2500   -7.5167    0.0000 C   0  0  0  0  0  0           0  0  0
    6.9542   -3.4167    0.0000 C   0  0  0  0  0  0           0  0  0
   -0.1833   -7.5167    0.0000 O   0  0  0  0  0  0           0  0  0
    9.1000   -3.8417    0.0000 C   0  0  0  0  0  0           0  0  0
    7.6667   -3.8375    0.0000 C   0  0  0  0  0  0           0  0  0
    1.9542   -3.8250    0.0000 C   0  0  0  0  0  0           0  0  0
    0.5292   -4.6500    0.0000 C   0  0  0  0  0  0           0  0  0
    8.3875   -3.4250    0.0000 C   0  0  0  0  0  0           0  0  0
   -0.8958   -7.1042    0.0000 C   0  0  0  0  0  0           0  0  0
    9.0917   -4.6667    0.0000 C   0  0  0  0  0  0           0  0  0
    9.8042   -3.4292    0.0000 C   0  0  0  0  0  0           0  0  0
    1.2500   -3.4125    0.0000 C   0  0  0  0  0  0           0  0  0
    0.5292   -3.8250    0.0000 C   0  0  0  0  0  0           0  0  0
   10.5167   -3.8417    0.0000 C   0  0  0  0  0  0           0  0  0
    9.8042   -5.0792    0.0000 C   0  0  0  0  0  0           0  0  0
   10.5167   -4.6667    0.0000 C   0  0  0  0  0  0           0  0  0
  2  1  1  0     0  0
  3  8  1  0     0  0
  4 11  1  0     0  0
  5  2  2  0     0  0
  6  1  1  0     0  0
  7  1  1  0     0  0
  8  7  1  0     0  0
  9  3  1  0     0  0
 10  3  1  0     0  0
 11 10  1  0     0  0
 12  9  1  0     0  0
 13  6  1  0     0  0
 14 17  2  0     0  0
 15 13  1  0     0  0
 16 13  2  0     0  0
 17 16  1  0     0  0
 18 15  2  0     0  0
 19  4  1  0     0  0
 20 14  1  0     0  0
 21 25  1  0     0  0
 22 19  1  0     0  0
 23  2  1  0     0  0
 24  5  1  0     0  0
 25 22  1  0     0  0
 26 20  1  0     0  0
 27 21  2  0     0  0
 28 21  1  0     0  0
 29 23  2  0     0  0
 30 29  1  0     0  0
 31 28  2  0     0  0
 32 27  1  0     0  0
 33 31  1  0     0  0
 14 18  1  0     0  0
 24 30  2  0     0  0
 12  4  1  0     0  0
 32 33  2  0     0  0
M  END