
  SciTegic12231509382D

 27 30  0  0  0  0            999 V2000
   14.7793  -20.3045    0.0000 C   0  0
   15.4890  -19.8951    0.0000 C   0  0
   15.4862  -19.0724    0.0000 C   0  0
   14.7775  -18.6672    0.0000 C   0  0
   14.0713  -19.8955    0.0000 N   0  0
   14.0725  -19.0745    0.0000 C   0  0
   13.2920  -18.8196    0.0000 N   0  0
   12.8083  -19.4831    0.0000 C   0  0
   13.2900  -20.1480    0.0000 C   0  0
   11.9911  -19.4819    0.0000 N   0  0
   11.5815  -20.1891    0.0000 C   0  0
   10.7643  -20.1879    0.0000 C   0  0
   11.9891  -20.8974    0.0000 O   0  0
   10.3599  -19.4784    0.0000 C   0  0
    9.5434  -19.4769    0.0000 C   0  0
    9.1330  -20.1845    0.0000 C   0  0
    9.5449  -20.8952    0.0000 C   0  0
   10.3600  -20.8932    0.0000 C   0  0
    8.3158  -20.1844    0.0000 C   0  0
    7.9073  -19.4766    0.0000 C   0  0
    7.9071  -20.8921    0.0000 C   0  0
    7.7881  -20.1780    0.0000 C   0  0
   16.1950  -20.3018    0.0000 N   0  0
   16.2850  -21.1072    0.0000 C   0  0
   17.0822  -21.2758    0.0000 C   0  0
   17.4889  -20.5697    0.0000 N   0  0
   16.9430  -19.9649    0.0000 C   0  0
  5  1  1  0
  1  2  2  0
  2  3  1  0
  3  4  2  0
  4  6  1  0
  5  6  1  0
  6  7  2  0
  7  8  1  0
  8  9  2  0
  9  5  1  0
  8 10  1  0
 10 11  1  0
 11 12  1  0
 11 13  2  0
 12 14  2  0
 14 15  1  0
 15 16  2  0
 16 17  1  0
 17 18  2  0
 18 12  1  0
 16 19  1  0
 19 20  1  0
 19 21  1  0
 19 22  1  0
  2 23  1  0
 23 24  1  0
 24 25  2  0
 25 26  1  0
 26 27  2  0
 27 23  1  0
M  END