
  SciTegic02181312462D

 23 25  0  0  0  0            999 V2000
   40.2567   -2.7473    0.0000 C   0  0
   40.9664   -2.3378    0.0000 C   0  0
   40.9635   -1.5152    0.0000 C   0  0
   40.2549   -1.1099    0.0000 C   0  0
   39.5487   -2.3383    0.0000 N   0  0
   39.5499   -1.5173    0.0000 C   0  0
   38.7694   -1.2623    0.0000 N   0  0
   38.2857   -1.9259    0.0000 C   0  0
   38.7674   -2.5908    0.0000 C   0  0
   37.4685   -1.9247    0.0000 N   0  0
   37.0589   -2.6318    0.0000 C   0  0
   36.2417   -2.6306    0.0000 C   0  0
   37.4665   -3.3401    0.0000 O   0  0
   35.8372   -1.9212    0.0000 C   0  0
   35.0208   -1.9196    0.0000 C   0  0
   34.6104   -2.6273    0.0000 C   0  0
   35.0223   -3.3379    0.0000 C   0  0
   35.8374   -3.3360    0.0000 C   0  0
   33.7932   -2.6272    0.0000 C   0  0
   33.3847   -1.9194    0.0000 C   0  0
   33.3845   -3.3348    0.0000 C   0  0
   33.2655   -2.6208    0.0000 C   0  0
   41.6747   -2.7453    0.0000 Cl  0  0
  5  1  1  0
  1  2  2  0
  2  3  1  0
  3  4  2  0
  4  6  1  0
  5  6  1  0
  6  7  2  0
  7  8  1  0
  8  9  2  0
  9  5  1  0
  8 10  1  0
 10 11  1  0
 11 12  1  0
 11 13  2  0
 12 14  2  0
 14 15  1  0
 15 16  2  0
 16 17  1  0
 17 18  2  0
 18 12  1  0
 16 19  1  0
 19 20  1  0
 19 21  1  0
 19 22  1  0
  2 23  1  0
M  END