
  CDK    9/16/09,10:2

 24 27  0  0  0  0  0  0  0  0999 V2000
   12.4205    2.0035    0.0000 C   0  0  0  0  0  0  0  0  0  0  0  0
   11.5964    2.0088    0.0000 C   0  0  0  0  0  0  0  0  0  0  0  0
   11.1817    1.2989    0.0000 C   0  0  0  0  0  0  0  0  0  0  0  0
   11.5897    0.5832    0.0000 C   0  0  0  0  0  0  0  0  0  0  0  0
   12.4169    0.5819    0.0000 C   0  0  0  0  0  0  0  0  0  0  0  0
   12.8279    1.2924    0.0000 C   0  0  0  0  0  0  0  0  0  0  0  0
   10.3558    1.3033    0.0000 C   0  0  0  0  0  0  0  0  0  0  0  0
    9.9392    0.5902    0.0000 S   0  0  0  0  0  0  0  0  0  0  0  0
   10.3482   -0.1270    0.0000 C   0  0  0  0  0  0  0  0  0  0  0  0
   10.0107   -0.8798    0.0000 N   0  0  0  0  0  0  0  0  0  0  0  0
   10.6214   -1.4356    0.0000 N   0  0  0  0  0  0  0  0  0  0  0  0
   11.3388   -1.0264    0.0000 C   0  0  0  0  0  0  0  0  0  0  0  0
   11.1714   -0.2178    0.0000 O   0  0  0  0  0  0  0  0  0  0  0  0
   12.0893   -1.3640    0.0000 C   0  0  0  0  0  0  0  0  0  0  0  0
   12.1701   -2.1870    0.0000 C   0  0  0  0  0  0  0  0  0  0  0  0
   12.9218   -2.5268    0.0000 C   0  0  0  0  0  0  0  0  0  0  0  0
   12.7563   -0.8830    0.0000 C   0  0  0  0  0  0  0  0  0  0  0  0
   13.5083   -1.2190    0.0000 C   0  0  0  0  0  0  0  0  0  0  0  0
   13.5899   -2.0439    0.0000 C   0  0  0  0  0  0  0  0  0  0  0  0
   14.3995   -2.2213    0.0000 O   0  0  0  0  0  0  0  0  0  0  0  0
   14.8185   -1.5059    0.0000 C   0  0  0  0  0  0  0  0  0  0  0  0
   14.2676   -0.8867    0.0000 C   0  0  0  0  0  0  0  0  0  0  0  0
   13.6538    1.2907    0.0000 O   0  0  0  0  0  0  0  0  0  0  0  0
   14.0651    0.5746    0.0000 C   0  0  0  0  0  0  0  0  0  0  0  0
 10 11  1  0  0  0  0 
 11 12  2  0  0  0  0 
 12 13  1  0  0  0  0 
 13  9  1  0  0  0  0 
  1  2  2  0  0  0  0 
  3  7  1  0  0  0  0 
 14 15  2  0  0  0  0 
  3  4  2  0  0  0  0 
 15 16  1  0  0  0  0 
 16 19  2  0  0  0  0 
  7  8  1  0  0  0  0 
 18 17  2  0  0  0  0 
 17 14  1  0  0  0  0 
 12 14  1  0  0  0  0 
 18 19  1  0  0  0  0 
  8  9  1  0  0  0  0 
  9 10  2  0  0  0  0 
  4  5  1  0  0  0  0 
  2  3  1  0  0  0  0 
 19 20  1  0  0  0  0 
 20 21  1  0  0  0  0 
 21 22  1  0  0  0  0 
 22 18  1  0  0  0  0 
  5  6  2  0  0  0  0 
  6 23  1  0  0  0  0 
  6  1  1  0  0  0  0 
 23 24  1  0  0  0  0 
M  END