
          11280714542D 1   1.00000     0.00000     0

 34 37  0     0  0            999 V2000
    2.9792   -6.9417    0.0000 N   0  0  3  0  0  0           0  0  0
    8.6625   -7.7625    0.0000 N   0  0  3  0  0  0           0  0  0
    7.2542   -6.9375    0.0000 N   0  0  3  0  0  0           0  0  0
    2.9792   -7.7667    0.0000 C   0  0  0  0  0  0           0  0  0
    2.2667   -6.5292    0.0000 C   0  0  0  0  0  0           0  0  0
    7.9500   -8.1667    0.0000 C   0  0  0  0  0  0           0  0  0
    7.2500   -7.7542    0.0000 C   0  0  0  0  0  0           0  0  0
    8.6667   -6.9417    0.0000 C   0  0  0  0  0  0           0  0  0
    7.9542   -6.5250    0.0000 C   0  0  0  0  0  0           0  0  0
    2.2667   -8.1750    0.0000 C   0  0  0  0  0  0           0  0  0
    9.3750   -8.1792    0.0000 C   0  0  0  0  0  0           0  0  0
    6.5417   -6.5250    0.0000 C   0  0  0  0  0  0           0  0  0
   11.5167   -7.7792    0.0000 C   0  0  0  0  0  0           0  0  0
    3.6917   -6.5292    0.0000 C   0  0  0  0  0  0           0  0  0
   10.0917   -7.7667    0.0000 C   0  0  0  0  0  0           0  0  0
    1.5542   -6.9417    0.0000 C   0  0  0  0  0  0           0  0  0
    2.2667   -5.7042    0.0000 C   0  0  0  0  0  0           0  0  0
   10.8042   -8.1875    0.0000 C   0  0  0  0  0  0           0  0  0
    2.2667   -8.9917    0.0000 C   0  0  0  0  0  0           0  0  0
    1.5542   -7.7542    0.0000 C   0  0  0  0  0  0           0  0  0
   12.2292   -8.2000    0.0000 C   0  0  0  0  0  0           0  0  0
   11.5167   -6.9542    0.0000 C   0  0  0  0  0  0           0  0  0
    5.8375   -6.9417    0.0000 C   0  0  0  0  0  0           0  0  0
    4.4042   -6.9417    0.0000 C   0  0  0  0  0  0           0  0  0
    5.1250   -6.5292    0.0000 C   0  0  0  0  0  0           0  0  0
    1.5625   -5.2917    0.0000 C   0  0  0  0  0  0           0  0  0
    0.8417   -6.5292    0.0000 C   0  0  0  0  0  0           0  0  0
    0.8500   -8.1667    0.0000 C   0  0  0  0  0  0           0  0  0
   12.9417   -7.7917    0.0000 C   0  0  0  0  0  0           0  0  0
   12.2292   -6.5500    0.0000 C   0  0  0  0  0  0           0  0  0
    1.5625   -9.4000    0.0000 C   0  0  0  0  0  0           0  0  0
   12.9542   -6.9667    0.0000 C   0  0  0  0  0  0           0  0  0
    0.8417   -8.9875    0.0000 C   0  0  0  0  0  0           0  0  0
    0.8417   -5.7042    0.0000 C   0  0  0  0  0  0           0  0  0
  2  8  1  0     0  0
  3 12  1  0     0  0
  4  1  1  0     0  0
  5  1  1  0     0  0
  6  7  1  0     0  0
  7  3  1  0     0  0
  8  9  1  0     0  0
  9  3  1  0     0  0
 10  4  1  0     0  0
 11  2  1  0     0  0
 12 23  1  0     0  0
 13 18  1  0     0  0
 14  1  1  0     0  0
 15 11  1  0     0  0
 16  5  2  0     0  0
 17  5  1  0     0  0
 18 15  1  0     0  0
 19 10  1  0     0  0
 20 10  2  0     0  0
 21 13  2  0     0  0
 22 13  1  0     0  0
 23 25  1  0     0  0
 24 14  1  0     0  0
 25 24  1  0     0  0
 26 17  2  0     0  0
 27 16  1  0     0  0
 28 20  1  0     0  0
 29 21  1  0     0  0
 30 22  2  0     0  0
 31 19  2  0     0  0
 32 30  1  0     0  0
 33 28  2  0     0  0
 34 26  1  0     0  0
 27 34  2  0     0  0
 33 31  1  0     0  0
  6  2  1  0     0  0
 29 32  2  0     0  0
M  END