
  Mrv0541 04051115152D          

 35 38  0  0  0  0            999 V2000
    5.4089    0.7917    0.0000 C   0  0  0  0  0  0  0  0  0  0  0  0
    5.7445    1.5454    0.0000 C   0  0  0  0  0  0  0  0  0  0  0  0
    5.2596    2.2128    0.0000 O   0  0  0  0  0  0  0  0  0  0  0  0
    4.4391    2.1266    0.0000 C   0  0  0  0  0  0  0  0  0  0  0  0
    4.1035    1.3729    0.0000 C   0  0  0  0  0  0  0  0  0  0  0  0
    4.5884    0.7055    0.0000 N   0  0  0  0  0  0  0  0  0  0  0  0
    4.2529   -0.0482    0.0000 C   0  0  0  0  0  0  0  0  0  0  0  0
    3.4324   -0.1344    0.0000 C   0  0  0  0  0  0  0  0  0  0  0  0
    3.0968   -0.8881    0.0000 O   0  0  0  0  0  0  0  0  0  0  0  0
    2.2764   -0.9743    0.0000 C   0  0  0  0  0  0  0  0  0  0  0  0
    1.9408   -1.7280    0.0000 C   0  0  0  0  0  0  0  0  0  0  0  0
    1.1203   -1.8142    0.0000 C   0  0  0  0  0  0  0  0  0  0  0  0
    1.7914   -0.3069    0.0000 C   0  0  0  0  0  0  0  0  0  0  0  0
    0.9710   -0.3931    0.0000 C   0  0  0  0  0  0  0  0  0  0  0  0
    0.6354   -1.1468    0.0000 C   0  0  0  0  0  0  0  0  0  0  0  0
   -0.1851   -1.2330    0.0000 N   0  0  0  0  0  0  0  0  0  0  0  0
   -0.6700   -0.5656    0.0000 C   0  0  0  0  0  0  0  0  0  0  0  0
   -0.3344    0.1881    0.0000 O   0  0  0  0  0  0  0  0  0  0  0  0
   -1.4905   -0.6518    0.0000 N   0  0  0  0  0  0  0  0  0  0  0  0
   -1.9754    0.0156    0.0000 C   0  0  0  0  0  0  0  0  0  0  0  0
   -1.7205    0.8002    0.0000 C   0  0  0  0  0  0  0  0  0  0  0  0
   -2.3879    1.2852    0.0000 C   0  0  0  0  0  0  0  0  0  0  0  0
   -2.3879    2.1102    0.0000 C   0  0  0  0  0  0  0  0  0  0  0  0
   -3.2129    2.1102    0.0000 C   0  0  0  0  0  0  0  0  0  0  0  0
   -2.3879    2.9352    0.0000 C   0  0  0  0  0  0  0  0  0  0  0  0
   -1.5629    2.1102    0.0000 C   0  0  0  0  0  0  0  0  0  0  0  0
   -3.0553    0.8002    0.0000 N   0  0  0  0  0  0  0  0  0  0  0  0
   -2.8004    0.0156    0.0000 N   0  0  0  0  0  0  0  0  0  0  0  0
   -3.2853   -0.6518    0.0000 C   0  0  0  0  0  0  0  0  0  0  0  0
   -4.1058   -0.5656    0.0000 C   0  0  0  0  0  0  0  0  0  0  0  0
   -4.5907   -1.2330    0.0000 C   0  0  0  0  0  0  0  0  0  0  0  0
   -4.2552   -1.9867    0.0000 C   0  0  0  0  0  0  0  0  0  0  0  0
   -4.7401   -2.6541    0.0000 C   0  0  0  0  0  0  0  0  0  0  0  0
   -3.4347   -2.0729    0.0000 C   0  0  0  0  0  0  0  0  0  0  0  0
   -2.9498   -1.4055    0.0000 C   0  0  0  0  0  0  0  0  0  0  0  0
  2  1  1  0  0  0  0
  1  6  1  0  0  0  0
  2  3  1  0  0  0  0
  4  3  1  0  0  0  0
  4  5  1  0  0  0  0
  5  6  1  0  0  0  0
  7  6  1  0  0  0  0
  8  7  1  0  0  0  0
  8  9  1  0  0  0  0
 10  9  1  0  0  0  0
 13 10  2  0  0  0  0
 11 10  1  0  0  0  0
 12 11  2  0  0  0  0
 12 15  1  0  0  0  0
 14 13  1  0  0  0  0
 14 15  2  0  0  0  0
 15 16  1  0  0  0  0
 17 16  1  0  0  0  0
 17 18  2  0  0  0  0
 17 19  1  0  0  0  0
 20 19  1  0  0  0  0
 21 20  2  0  0  0  0
 20 28  1  0  0  0  0
 21 22  1  0  0  0  0
 22 27  2  0  0  0  0
 22 23  1  0  0  0  0
 25 23  1  0  0  0  0
 24 23  1  0  0  0  0
 26 23  1  0  0  0  0
 27 28  1  0  0  0  0
 29 28  1  0  0  0  0
 30 29  2  0  0  0  0
 35 29  1  0  0  0  0
 31 30  1  0  0  0  0
 31 32  2  0  0  0  0
 33 32  1  0  0  0  0
 34 32  1  0  0  0  0
 34 35  2  0  0  0  0
M  END