
  SciTegic01061414252D

 31 35  0  0  0  0            999 V2000
    6.1245   -6.6050    0.0000 C   0  0
    6.1234   -7.4323    0.0000 C   0  0
    6.8382   -7.8452    0.0000 C   0  0
    6.8364   -6.1921    0.0000 C   0  0
    7.5518   -6.6013    0.0000 C   0  0
    7.5566   -7.4278    0.0000 C   0  0
    8.3442   -7.6786    0.0000 C   0  0
    8.8261   -7.0071    0.0000 C   0  0
    8.3363   -6.3414    0.0000 N   0  0
    5.4577   -7.9180    0.0000 C   0  0
    8.5867   -5.5552    0.0000 C   0  0
    9.3927   -5.3789    0.0000 C   0  0
    8.0310   -4.9454    0.0000 O   0  0
    9.6429   -4.5929    0.0000 C   0  0
   10.4542   -4.4185    0.0000 N   0  0
   10.7047   -3.6332    0.0000 C   0  0
   10.1488   -3.0289    0.0000 C   0  0
    9.3393   -3.2075    0.0000 C   0  0
    9.0926   -3.9872    0.0000 C   0  0
    4.6726   -7.6647    0.0000 C   0  0
    4.1890   -8.3331    0.0000 C   0  0
    4.6726   -8.9995    0.0000 N   0  0
    5.4577   -8.7430    0.0000 C   0  0
    4.3355   -6.9117    0.0000 C   0  0
    3.5148   -6.8271    0.0000 N   0  0
    3.0313   -7.4955    0.0000 C   0  0
    3.3683   -8.2485    0.0000 N   0  0
    4.8191   -6.2433    0.0000 N   0  0
    4.4180   -9.7843    0.0000 C   0  0
   11.5103   -3.4553    0.0000 C   0  0
    6.8393   -8.6702    0.0000 F   0  0
  1  2  2  0
  2  3  1  0
  3  6  2  0
  5  4  2  0
  4  1  1  0
  5  6  1  0
  6  7  1  0
  7  8  1  0
  8  9  1  0
  9  5  1  0
  2 10  1  0
  9 11  1  0
 11 12  1  0
 11 13  2  0
 12 14  1  0
 14 15  2  0
 15 16  1  0
 16 17  2  0
 17 18  1  0
 18 19  2  0
 19 14  1  0
 10 20  1  0
 20 21  2  0
 21 22  1  0
 22 23  1  0
 23 10  2  0
 20 24  1  0
 24 25  2  0
 25 26  1  0
 26 27  2  0
 27 21  1  0
 24 28  1  0
 22 29  1  0
 16 30  1  0
  3 31  1  0
M  END