
  SciTegic06051315212D

 28 31  0  0  0  0            999 V2000
   18.7046   -3.3554    0.0000 O   0  0
   19.4186   -2.9427    0.0000 S   0  0
   18.7093   -2.5343    0.0000 O   0  0
   21.0596   -4.3596    0.0000 C   0  0
   21.8818   -4.3623    0.0000 C   0  0
   22.2900   -3.6486    0.0000 C   0  0
   21.8824   -2.9431    0.0000 C   0  0
   23.1103   -3.6488    0.0000 C   0  0
   23.5172   -4.3587    0.0000 C   0  0
   24.3419   -4.3604    0.0000 C   0  0
   24.7483   -3.6487    0.0000 C   0  0
   24.3406   -2.9462    0.0000 C   0  0
   23.5173   -2.9439    0.0000 C   0  0
   20.6487   -3.6506    0.0000 C   0  0
   21.0593   -2.9453    0.0000 C   0  0
   19.8281   -3.6490    0.0000 N   0  0
   19.8311   -2.2346    0.0000 C   0  0
   20.6488   -2.2332    0.0000 C   0  0
   20.9026   -1.4574    0.0000 N   0  0
   20.2359   -0.9818    0.0000 N   0  0
   19.5779   -1.4588    0.0000 C   0  0
   19.4072   -4.3651    0.0000 C   0  0
   25.5655   -3.6490    0.0000 C   0  0
   25.9739   -4.3568    0.0000 N   0  0
   25.9743   -2.9414    0.0000 O   0  0
   26.7952   -4.3570    0.0000 C   0  0
   27.2040   -5.0610    0.0000 C   0  0
   28.0253   -5.0612    0.0000 O   0  0
  2  1  2  0
  3  2  2  0
 14  4  2  0
  4  5  1  0
  5  6  2  0
  6  7  1  0
  7 15  2  0
  8  9  2  0
  9 10  1  0
 10 11  2  0
 11 12  1  0
 12 13  2  0
 13  8  1  0
  6  8  1  0
 14 15  1  0
 14 16  1  0
 15 18  1  0
 17  2  1  0
  2 16  1  0
 17 18  2  0
 18 19  1  0
 19 20  1  0
 20 21  2  0
 21 17  1  0
 16 22  1  0
 11 23  1  0
 23 24  1  0
 23 25  2  0
 24 26  1  0
 26 27  1  0
 27 28  1  0
M  END