
  SciTegic05171617282D

 33 37  0  0  0  0            999 V2000
   -5.1907    4.0730    0.0000 N   0  0
   -5.1815    5.2730    0.0000 C   0  0
   -6.2163    5.8807    0.0000 O   0  0
   -3.8757    6.0130    0.0000 C   0  0
   -3.8669    7.5130    0.0000 C   0  0
   -2.5634    8.2553    0.0000 C   0  0
   -1.2688    7.4976    0.0000 C   0  0
   -1.2777    5.9976    0.0000 N   0  0
   -2.5812    5.2552    0.0000 C   0  0
   -2.5870    3.7544    0.0000 C   0  0
   -1.2907    2.9981    0.0000 O   0  0
   -1.2964    1.4973    0.0000 C   0  0
   -2.6111    0.7486    0.0000 C   0  0
   -2.6111   -0.7486    0.0000 C   0  0
   -1.2964   -1.4973    0.0000 C   0  0
    0.0000   -0.7486    0.0000 C   0  0
    1.2964   -1.4973    0.0000 N   0  0
    2.5929   -0.7486    0.0000 C   0  0
    2.5929    0.7486    0.0000 C   0  0
    1.2964    1.4973    0.0000 C   0  0
    0.0000    0.7486    0.0000 C   0  0
   -3.9086   -1.5029    0.0000 C   0  0
   -3.9097   -3.0028    0.0000 C   0  0
   -5.2093   -3.7519    0.0000 C   0  0
   -6.5078   -3.0010    0.0000 C   0  0
   -6.5067   -1.5010    0.0000 N   0  0
   -5.2071   -0.7519    0.0000 C   0  0
   -7.8080   -3.7504    0.0000 N   0  0
   -7.8115   -5.2505    0.0000 C   0  0
   -9.1123   -5.9975    0.0000 C   0  0
  -10.4096   -5.2445    0.0000 O   0  0
  -10.4061   -3.7445    0.0000 C   0  0
   -9.1054   -2.9975    0.0000 C   0  0
  1  2  1  0
  2  3  2  0
  2  4  1  0
  4  5  2  0
  5  6  1  0
  6  7  2  0
  7  8  1  0
  8  9  2  0
  4  9  1  0
  9 10  1  0
 10 11  1  0
 11 12  1  0
 12 13  1  0
 13 14  2  0
 14 15  1  0
 15 16  2  0
 16 17  1  0
 17 18  2  0
 18 19  1  0
 19 20  2  0
 20 21  1  0
 12 21  2  0
 16 21  1  0
 14 22  1  0
 22 23  2  0
 23 24  1  0
 24 25  2  0
 25 26  1  0
 26 27  2  0
 22 27  1  0
 25 28  1  0
 28 29  1  0
 29 30  1  0
 30 31  1  0
 31 32  1  0
 32 33  1  0
 28 33  1  0
M  END