
  SciTegic12011114242D

 21 22  0  0  0  0            999 V2000
   19.9111   -8.9208    0.0000 C   0  0
   19.9099   -9.7482    0.0000 C   0  0
   20.6247  -10.1610    0.0000 C   0  0
   21.3412   -9.7477    0.0000 C   0  0
   21.3383   -8.9172    0.0000 C   0  0
   20.6229   -8.5080    0.0000 C   0  0
   22.0563  -10.1591    0.0000 N   0  0
   22.0576  -10.9841    0.0000 C   0  0
   22.7727  -11.3954    0.0000 N   0  0
   21.3438  -11.3977    0.0000 O   0  0
   22.7740  -12.2204    0.0000 C   0  0
   19.1965   -8.5085    0.0000 C   0  0
   22.0616  -12.6312    0.0000 C   0  0
   22.0625  -13.4554    0.0000 C   0  0
   22.7782  -13.8676    0.0000 C   0  0
   23.4944  -13.4496    0.0000 C   0  0
   23.4899  -12.6267    0.0000 C   0  0
   21.3485  -13.8687    0.0000 C   0  0
   20.6336  -13.4570    0.0000 F   0  0
   21.3494  -14.6937    0.0000 F   0  0
   20.6292  -14.2750    0.0000 F   0  0
  2  3  1  0
  9 11  1  0
  5  6  2  0
  1 12  1  0
  6  1  1  0
 11 13  2  0
  1  2  2  0
 13 14  1  0
  4  7  1  0
 14 15  2  0
  3  4  2  0
 15 16  1  0
  7  8  1  0
 16 17  2  0
 17 11  1  0
 14 18  1  0
  8  9  1  0
 18 19  1  0
  4  5  1  0
 18 20  1  0
  8 10  2  0
 18 21  1  0
M  END