
  SciTegic          2D

 28 31  0  0  0  0            999 V2000
   -0.7145    1.2375    0.0000 N   0  0
    0.0000    0.8250    0.0000 C   0  0
    0.7145    1.2375    0.0000 N   0  0
    1.4289    0.8250    0.0000 C   0  0
    1.4289    0.0000    0.0000 C   0  0
    0.7145   -0.4125    0.0000 C   0  0
    0.0000    0.0000    0.0000 N   0  0
    0.7145   -1.2375    0.0000 C   0  0
    1.3819   -1.7224    0.0000 C   0  0
    1.1270   -2.5070    0.0000 N   0  0
    0.3020   -2.5070    0.0000 C   0  0
    0.0470   -1.7224    0.0000 N   0  0
   -0.7376   -1.4675    0.0000 C   0  0
   -1.3507   -2.0195    0.0000 C   0  0
   -2.1353   -1.7646    0.0000 C   0  0
   -2.7484   -2.3166    0.0000 N   0  0
   -2.5769   -3.1236    0.0000 C   0  0
   -3.1900   -3.6756    0.0000 C   0  0
   -3.9746   -3.4207    0.0000 O   0  0
   -4.1461   -2.6137    0.0000 C   0  0
   -3.5330   -2.0617    0.0000 C   0  0
    2.1665   -1.4675    0.0000 C   0  0
    2.3381   -0.6605    0.0000 C   0  0
    3.1227   -0.4056    0.0000 C   0  0
    3.7358   -0.9576    0.0000 C   0  0
    4.5204   -0.7027    0.0000 F   0  0
    3.5642   -1.7646    0.0000 C   0  0
    2.7796   -2.0195    0.0000 C   0  0
  1  2  1  0
  2  3  2  0
  3  4  1  0
  4  5  2  0
  5  6  1  0
  6  7  2  0
  2  7  1  0
  6  8  1  0
  8  9  2  0
  9 10  1  0
 10 11  2  0
 11 12  1  0
  8 12  1  0
 12 13  1  0
 13 14  1  0
 14 15  1  0
 15 16  1  0
 16 17  1  0
 17 18  1  0
 18 19  1  0
 19 20  1  0
 20 21  1  0
 16 21  1  0
  9 22  1  0
 22 23  2  0
 23 24  1  0
 24 25  2  0
 25 26  1  0
 25 27  1  0
 27 28  2  0
 22 28  1  0
M  END