
  SciTegic06051315212D

 25 28  0  0  0  0            999 V2000
   20.1202   -9.0386    0.0000 O   0  0
   20.8343   -8.6259    0.0000 S   0  0
   20.1249   -8.2175    0.0000 O   0  0
   22.4752  -10.0428    0.0000 C   0  0
   23.2974  -10.0455    0.0000 C   0  0
   23.7056   -9.3318    0.0000 C   0  0
   23.2981   -8.6263    0.0000 C   0  0
   24.5260   -9.3319    0.0000 C   0  0
   24.9328  -10.0419    0.0000 C   0  0
   25.7575  -10.0436    0.0000 C   0  0
   26.1639   -9.3319    0.0000 C   0  0
   25.7562   -8.6294    0.0000 C   0  0
   24.9329   -8.6271    0.0000 C   0  0
   22.0644   -9.3338    0.0000 C   0  0
   22.4750   -8.6285    0.0000 C   0  0
   21.2437   -9.3322    0.0000 N   0  0
   21.2467   -7.9178    0.0000 C   0  0
   22.0644   -7.9164    0.0000 C   0  0
   22.3182   -7.1406    0.0000 N   0  0
   21.6516   -6.6650    0.0000 N   0  0
   20.9936   -7.1420    0.0000 C   0  0
   20.8229  -10.0483    0.0000 C   0  0
   26.9811   -9.3322    0.0000 C   0  0
   27.3895  -10.0400    0.0000 C   0  0
   21.6485   -5.8479    0.0000 C   0  0
  2  1  2  0
  3  2  2  0
 14  4  2  0
  4  5  1  0
  5  6  2  0
  6  7  1  0
  7 15  2  0
  8  9  2  0
  9 10  1  0
 10 11  2  0
 11 12  1  0
 12 13  2  0
 13  8  1  0
  6  8  1  0
 14 15  1  0
 14 16  1  0
 15 18  1  0
 17  2  1  0
  2 16  1  0
 17 18  1  0
 18 19  2  0
 19 20  1  0
 20 21  1  0
 21 17  2  0
 16 22  1  0
 11 23  1  0
 23 24  1  0
 20 25  1  0
M  END