
  SciTegic02181312462D

 25 28  0  0  0  0            999 V2000
    7.9110  -26.7727    0.0000 C   0  0
    8.6201  -27.1813    0.0000 N   0  0
    7.2030  -27.9979    0.0000 C   0  0
    6.4980  -28.4065    0.0000 C   0  0
    5.7889  -27.9979    0.0000 C   0  0
    5.7889  -27.1807    0.0000 C   0  0
    6.4980  -26.7721    0.0000 C   0  0
    7.2030  -27.1807    0.0000 C   0  0
    5.0798  -26.7721    0.0000 O   0  0
    2.9567  -27.9979    0.0000 C   0  0
    3.6658  -28.4065    0.0000 C   0  0
    4.3749  -27.9979    0.0000 C   0  0
    4.3749  -27.1807    0.0000 C   0  0
    3.6658  -26.7721    0.0000 N   0  0
    2.9567  -27.1807    0.0000 N   0  0
    2.1795  -28.2485    0.0000 N   0  0
    1.6993  -27.5893    0.0000 C   0  0
    2.1795  -26.9261    0.0000 C   0  0
    8.6211  -27.9985    0.0000 C   0  0
    7.9150  -28.4049    0.0000 C   0  0
    7.9157  -29.2214    0.0000 C   0  0
    8.6245  -29.6299    0.0000 C   0  0
    9.3340  -29.2160    0.0000 C   0  0
    9.3298  -28.4009    0.0000 C   0  0
    7.9110  -25.9555    0.0000 O   0  0
  1  2  1  0
  3  4  1  0
  4  5  2  0
  5  6  1  0
  6  7  2  0
  7  8  1  0
  3  8  2  0
 10 11  1  0
 11 12  2  0
 12 13  1  0
 13 14  2  0
 14 15  1  0
 10 15  1  0
 16 17  1  0
 17 18  2  0
 15 18  1  0
 10 16  2  0
  9 13  1  0
  6  9  1  0
  8  1  1  0
  2 19  1  0
 19 20  2  0
 20 21  1  0
 21 22  2  0
 22 23  1  0
 23 24  2  0
 24 19  1  0
  1 25  2  0
M  END