
  SciTegic01061111512D

 27 31  0  0  0  0            999 V2000
    8.4372  -22.6652    0.0000 N   0  0
    9.1537  -22.2519    0.0000 C   0  0
    9.1508  -21.4213    0.0000 N   0  0
    8.4354  -21.0122    0.0000 C   0  0
    7.7224  -22.2523    0.0000 C   0  0
    7.7190  -21.4234    0.0000 C   0  0
    6.9297  -21.1705    0.0000 N   0  0
    6.4451  -21.8431    0.0000 C   0  0
    6.9351  -22.5116    0.0000 C   0  0
    6.6716  -20.3869    0.0000 C   0  0
    8.4347  -20.1872    0.0000 O   0  0
    9.1489  -19.7741    0.0000 C   0  0
    9.8610  -20.1864    0.0000 C   0  0
   10.5746  -19.7740    0.0000 C   0  0
   10.5744  -18.9481    0.0000 C   0  0
    9.8546  -18.5364    0.0000 C   0  0
    9.1438  -18.9511    0.0000 C   0  0
   11.2880  -18.5341    0.0000 N   0  0
   12.0033  -18.9451    0.0000 C   0  0
   12.0941  -19.7613    0.0000 N   0  0
   12.7598  -18.6044    0.0000 N   0  0
   13.3128  -19.2166    0.0000 C   0  0
   12.8995  -19.9279    0.0000 C   0  0
   13.3089  -20.6394    0.0000 C   0  0
   14.1313  -20.6407    0.0000 C   0  0
   14.5427  -19.9246    0.0000 C   0  0
   14.1310  -19.2161    0.0000 C   0  0
 12 13  2  0
  2  3  1  0
 13 14  1  0
 14 15  2  0
  3  4  2  0
 15 16  1  0
  6  7  1  0
 16 17  2  0
 17 12  1  0
  7  8  1  0
 15 18  1  0
  8  9  2  0
 18 19  1  0
 19 20  2  0
  9  5  1  0
  4  6  1  0
 20 23  1  0
 22 21  1  0
 21 19  1  0
  7 10  1  0
  5  6  2  0
 22 23  2  0
  4 11  1  0
 23 24  1  0
  1  2  2  0
 24 25  2  0
 11 12  1  0
 25 26  1  0
  5  1  1  0
 26 27  2  0
 27 22  1  0
M  END