
  SciTegic06051315212D

 26 29  0  0  0  0            999 V2000
    1.2753  -13.6859    0.0000 O   0  0
    1.9893  -13.2732    0.0000 S   0  0
    1.2800  -12.8648    0.0000 O   0  0
    3.6303  -14.6900    0.0000 C   0  0
    4.4525  -14.6928    0.0000 C   0  0
    4.8607  -13.9791    0.0000 C   0  0
    4.4531  -13.2735    0.0000 C   0  0
    3.2195  -13.9811    0.0000 C   0  0
    3.6301  -13.2757    0.0000 C   0  0
    2.3988  -13.9795    0.0000 N   0  0
    2.4018  -12.5651    0.0000 C   0  0
    3.2195  -12.5636    0.0000 C   0  0
    3.4733  -11.7878    0.0000 N   0  0
    2.8066  -11.3123    0.0000 N   0  0
    2.1486  -11.7892    0.0000 C   0  0
    1.9780  -14.6955    0.0000 C   0  0
    4.2496  -11.5327    0.0000 C   0  0
    5.6779  -13.9773    0.0000 C   0  0
    6.0880  -14.6841    0.0000 N   0  0
    6.9052  -14.6824    0.0000 C   0  0
    7.3123  -15.3901    0.0000 C   0  0
    8.1287  -15.3887    0.0000 C   0  0
    8.5366  -14.6796    0.0000 C   0  0
    8.1221  -13.9704    0.0000 C   0  0
    7.3070  -13.9753    0.0000 C   0  0
    9.3538  -14.6767    0.0000 F   0  0
  2  1  2  0
  3  2  2  0
  8  4  2  0
  4  5  1  0
  5  6  2  0
  6  7  1  0
  7  9  2  0
  8  9  1  0
  8 10  1  0
  9 12  1  0
 11  2  1  0
  2 10  1  0
 11 12  2  0
 12 13  1  0
 13 14  1  0
 14 15  2  0
 15 11  1  0
 10 16  1  0
 13 17  1  0
  6 18  1  0
 18 19  1  0
 19 20  1  0
 20 21  2  0
 21 22  1  0
 22 23  2  0
 23 24  1  0
 24 25  2  0
 25 20  1  0
 23 26  1  0
M  END