
          11280715482D 1   1.00000     0.00000     0

 20 22  0     0  0            999 V2000
    3.3750   -1.7750    0.0000 C   0  0  0  0  0  0           0  0  0
    3.3542   -0.9542    0.0000 C   0  0  0  0  0  0           0  0  0
    4.1625   -2.0125    0.0000 N   0  0  0  0  0  0           0  0  0
    4.1292   -0.6792    0.0000 S   0  0  0  0  0  0           0  0  0
    4.6292   -1.3292    0.0000 C   0  0  0  0  0  0           0  0  0
    2.7417   -2.3000    0.0000 C   0  0  0  0  0  0           0  0  0
    2.7000   -0.4542    0.0000 C   0  0  0  0  0  0           0  0  0
    2.8875   -3.1125    0.0000 C   0  0  0  0  0  0           0  0  0
    1.3917    0.5458    0.0000 N   0  0  0  0  0  0           0  0  0
    2.2542   -3.6375    0.0000 C   0  0  0  0  0  0           0  0  0
    5.4542   -1.3042    0.0000 C   0  0  0  0  0  0           0  0  0
    1.9750   -2.0167    0.0000 C   0  0  0  0  0  0           0  0  0
    1.3417   -2.5417    0.0000 C   0  0  0  0  0  0           0  0  0
    1.2792   -0.2667    0.0000 C   0  0  0  0  0  0           0  0  0
    2.1542    0.8708    0.0000 C   0  0  0  0  0  0           0  0  0
    1.9375   -0.7667    0.0000 C   0  0  0  0  0  0           0  0  0
    2.8125    0.3708    0.0000 C   0  0  0  0  0  0           0  0  0
    1.4875   -3.3542    0.0000 C   0  0  0  0  0  0           0  0  0
    2.4000   -4.4417    0.0000 C   0  0  0  0  0  0           0  0  0
    5.8875   -2.0042    0.0000 C   0  0  0  0  0  0           0  0  0
  2  1  2  0     0  0
  3  1  1  0     0  0
  4  2  1  0     0  0
  5  3  2  0     0  0
  6  1  1  0     0  0
  7  2  1  0     0  0
  8  6  1  0     0  0
  9 15  2  0     0  0
 10  8  2  0     0  0
 11  5  1  0     0  0
 12  6  2  0     0  0
 13 12  1  0     0  0
 14 16  2  0     0  0
 15 17  1  0     0  0
 16  7  1  0     0  0
 17  7  2  0     0  0
 18 13  2  0     0  0
 19 10  1  0     0  0
 20 11  1  0     0  0
  5  4  1  0     0  0
 10 18  1  0     0  0
  9 14  1  0     0  0
M  END