
          11280714542D 1   1.00000     0.00000     0

 37 40  0     0  0            999 V2000
    7.1875   -6.4042    0.0000 N   0  0  3  0  0  0           0  0  0
    5.7667   -5.5875    0.0000 N   0  0  3  0  0  0           0  0  0
   10.0417   -6.4167    0.0000 C   0  0  0  0  0  0           0  0  0
    2.9125   -5.5875    0.0000 C   0  0  3  0  0  0           0  0  0
    2.9125   -6.4125    0.0000 C   0  0  0  0  0  0           0  0  0
    2.1917   -5.1750    0.0000 C   0  0  0  0  0  0           0  0  0
    9.3292   -6.8292    0.0000 C   0  0  0  0  0  0           0  0  0
   10.0417   -5.6000    0.0000 C   0  0  0  0  0  0           0  0  0
    8.6167   -6.4167    0.0000 C   0  0  0  0  0  0           0  0  0
   10.7542   -6.8417    0.0000 C   0  0  0  0  0  0           0  0  0
    2.1917   -6.8167    0.0000 C   0  0  0  0  0  0           0  0  0
    3.6292   -6.8167    0.0000 C   0  0  0  0  0  0           0  0  0
    2.1917   -4.3500    0.0000 C   0  0  0  0  0  0           0  0  0
    1.4875   -5.5917    0.0000 C   0  0  0  0  0  0           0  0  0
   10.7625   -5.1917    0.0000 C   0  0  0  0  0  0           0  0  0
    5.7625   -6.4042    0.0000 C   0  0  0  0  0  0           0  0  0
    7.1917   -5.5792    0.0000 C   0  0  0  0  0  0           0  0  0
    6.4750   -5.1667    0.0000 C   0  0  0  0  0  0           0  0  0
    6.4667   -6.8167    0.0000 C   0  0  0  0  0  0           0  0  0
   11.4667   -6.4292    0.0000 C   0  0  0  0  0  0           0  0  0
    0.7750   -4.3500    0.0000 C   0  0  0  0  0  0           0  0  0
    2.9042   -8.0542    0.0000 C   0  0  0  0  0  0           0  0  0
    7.9042   -6.8250    0.0000 C   0  0  0  0  0  0           0  0  0
    3.6250   -5.1750    0.0000 O   0  0  0  0  0  0           0  0  0
   11.4792   -5.6042    0.0000 C   0  0  0  0  0  0           0  0  0
    1.4917   -3.9375    0.0000 C   0  0  0  0  0  0           0  0  0
    2.1917   -7.6417    0.0000 C   0  0  0  0  0  0           0  0  0
    0.7667   -5.1750    0.0000 C   0  0  0  0  0  0           0  0  0
    3.6250   -7.6417    0.0000 C   0  0  0  0  0  0           0  0  0
    0.0542   -3.9292    0.0000 F   0  0  0  0  0  0           0  0  0
    2.9042   -8.8792    0.0000 F   0  0  0  0  0  0           0  0  0
    9.3292   -5.1875    0.0000 O   0  0  0  0  0  0           0  0  0
    5.0542   -5.1750    0.0000 C   0  0  0  0  0  0           0  0  0
    4.3375   -5.5875    0.0000 C   0  0  0  0  0  0           0  0  0
   12.1792   -6.8542    0.0000 O   0  0  0  0  0  0           0  0  0
    9.3292   -4.3625    0.0000 C   0  0  0  0  0  0           0  0  0
   12.1750   -7.6792    0.0000 C   0  0  0  0  0  0           0  0  0
  2 16  1  0     0  0
  3  7  1  0     0  0
  4 24  1  0     0  0
  5  4  1  0     0  0
  6  4  1  0     0  0
  7  9  2  0     0  0
  8  3  1  0     0  0
  9 23  1  0     0  0
 10  3  2  0     0  0
 11  5  2  0     0  0
 12  5  1  0     0  0
 13  6  1  0     0  0
 14  6  2  0     0  0
 15  8  2  0     0  0
 16 19  1  0     0  0
 17  1  1  0     0  0
 18 17  1  0     0  0
 19  1  1  0     0  0
 20 10  1  0     0  0
 21 28  2  0     0  0
 22 29  1  0     0  0
 23  1  1  0     0  0
 24 34  1  0     0  0
 25 20  2  0     0  0
 26 13  2  0     0  0
 27 11  1  0     0  0
 28 14  1  0     0  0
 29 12  2  0     0  0
 30 21  1  0     0  0
 31 22  1  0     0  0
 32  8  1  0     0  0
 33  2  1  0     0  0
 34 33  1  0     0  0
 35 20  1  0     0  0
 36 32  1  0     0  0
 37 35  1  0     0  0
 18  2  1  0     0  0
 15 25  1  0     0  0
 26 21  1  0     0  0
 27 22  2  0     0  0
M  END