
  SciTegic06281210282D

 28 32  0  0  0  0            999 V2000
   16.1615    1.3721    0.0000 C   0  0
   15.4507    0.9572    0.0000 C   0  0
   15.4577    0.1308    0.0000 C   0  0
   16.1716   -0.2727    0.0000 N   0  0
   16.8748    0.9649    0.0000 N   0  0
   16.8733    0.1386    0.0000 C   0  0
   17.6587   -0.1182    0.0000 N   0  0
   18.1456    0.5493    0.0000 C   0  0
   17.6612    1.2187    0.0000 N   0  0
   16.1556    2.2002    0.0000 O   0  0
   18.0539   -0.8420    0.0000 C   0  0
   18.8787   -0.8621    0.0000 C   0  0
   19.2706   -1.5878    0.0000 C   0  0
   20.0947   -1.6082    0.0000 C   0  0
   20.5253   -0.9035    0.0000 C   0  0
   20.1260   -0.1766    0.0000 C   0  0
   19.3032   -0.1597    0.0000 C   0  0
   18.8393   -2.2911    0.0000 Cl  0  0
   20.4893   -2.3328    0.0000 Cl  0  0
   18.9707    0.5478    0.0000 C   0  0
   19.6811    0.1335    0.0000 C   0  0
   19.6826    0.9586    0.0000 C   0  0
   14.7454   -0.2823    0.0000 N   0  0
   14.0274    0.1261    0.0000 C   0  0
   13.3186   -0.2891    0.0000 C   0  0
   13.3216   -1.1146    0.0000 O   0  0
   14.0397   -1.5230    0.0000 C   0  0
   14.7546   -1.1060    0.0000 C   0  0
  2  3  2  0
 13 14  1  0
 14 15  2  0
  3  4  1  0
 15 16  1  0
  6  7  1  0
 16 17  2  0
 17 12  1  0
  7  8  1  0
 13 18  1  0
  8  9  2  0
 14 19  1  0
  9  5  1  0
  8 20  1  0
 21 20  1  0
 22 21  1  0
 20 22  1  0
  4  6  2  0
  1 10  2  0
 23 24  1  0
  5  6  1  0
  7 11  1  0
  1  2  1  0
 11 12  1  0
  5  1  1  0
 12 13  2  0
 23 28  1  0
 24 25  1  0
 25 26  1  0
 26 27  1  0
 27 28  1  0
  3 23  1  0
M  END