
          11280714552D 1   1.00000     0.00000     0

 34 37  0     0  0            999 V2000
    6.9667   -7.0750    0.0000 N   0  0  3  0  0  0           0  0  0
    5.5417   -6.2542    0.0000 N   0  0  3  0  0  0           0  0  0
    2.6917   -6.2542    0.0000 C   0  0  3  0  0  0           0  0  0
    2.6917   -7.0792    0.0000 C   0  0  0  0  0  0           0  0  0
    1.9750   -5.8417    0.0000 C   0  0  0  0  0  0           0  0  0
    8.3917   -7.0792    0.0000 C   0  0  0  0  0  0           0  0  0
    1.9792   -7.4875    0.0000 C   0  0  0  0  0  0           0  0  0
    3.4042   -7.4792    0.0000 C   0  0  0  0  0  0           0  0  0
    1.9792   -5.0167    0.0000 C   0  0  0  0  0  0           0  0  0
    1.2667   -6.2542    0.0000 C   0  0  0  0  0  0           0  0  0
    9.1125   -7.4917    0.0000 C   0  0  0  0  0  0           0  0  0
    5.5417   -7.0750    0.0000 C   0  0  0  0  0  0           0  0  0
    6.9667   -6.2500    0.0000 C   0  0  0  0  0  0           0  0  0
    6.2542   -5.8292    0.0000 C   0  0  0  0  0  0           0  0  0
    6.2500   -7.4875    0.0000 C   0  0  0  0  0  0           0  0  0
    0.5542   -5.0167    0.0000 C   0  0  0  0  0  0           0  0  0
    2.6875   -8.7250    0.0000 C   0  0  0  0  0  0           0  0  0
    3.4042   -5.8417    0.0000 O   0  0  0  0  0  0           0  0  0
    1.2667   -4.6042    0.0000 C   0  0  0  0  0  0           0  0  0
    1.9750   -8.3042    0.0000 C   0  0  0  0  0  0           0  0  0
    0.5500   -5.8417    0.0000 C   0  0  0  0  0  0           0  0  0
    3.4042   -8.3125    0.0000 C   0  0  0  0  0  0           0  0  0
    7.6792   -7.4917    0.0000 C   0  0  0  0  0  0           0  0  0
   -0.1625   -4.6000    0.0000 F   0  0  0  0  0  0           0  0  0
    2.6792   -9.5500    0.0000 F   0  0  0  0  0  0           0  0  0
    4.8292   -5.8417    0.0000 C   0  0  0  0  0  0           0  0  0
    4.1167   -6.2542    0.0000 C   0  0  0  0  0  0           0  0  0
   10.5292   -7.5042    0.0000 C   0  0  0  0  0  0           0  0  0
    9.8250   -7.0875    0.0000 C   0  0  0  0  0  0           0  0  0
   11.2500   -7.1042    0.0000 C   0  0  0  0  0  0           0  0  0
   10.5167   -8.3292    0.0000 C   0  0  0  0  0  0           0  0  0
   11.2292   -8.7500    0.0000 C   0  0  0  0  0  0           0  0  0
   11.9542   -7.5167    0.0000 C   0  0  0  0  0  0           0  0  0
   11.9500   -8.3417    0.0000 C   0  0  0  0  0  0           0  0  0
  2 12  1  0     0  0
  3 18  1  0     0  0
  4  3  1  0     0  0
  5  3  1  0     0  0
  6 23  1  0     0  0
  7  4  2  0     0  0
  8  4  1  0     0  0
  9  5  1  0     0  0
 10  5  2  0     0  0
 11  6  2  0     0  0
 12 15  1  0     0  0
 13  1  1  0     0  0
 14 13  1  0     0  0
 15  1  1  0     0  0
 16 21  2  0     0  0
 17 22  1  0     0  0
 18 27  1  0     0  0
 19  9  2  0     0  0
 20  7  1  0     0  0
 21 10  1  0     0  0
 22  8  2  0     0  0
 23  1  1  0     0  0
 24 16  1  0     0  0
 25 17  1  0     0  0
 26  2  1  0     0  0
 27 26  1  0     0  0
 28 29  1  0     0  0
 29 11  1  0     0  0
 30 28  1  0     0  0
 31 28  2  0     0  0
 32 31  1  0     0  0
 33 30  2  0     0  0
 34 32  2  0     0  0
 14  2  1  0     0  0
 33 34  1  0     0  0
 19 16  1  0     0  0
 20 17  2  0     0  0
M  END