
          11280715092D 1   1.00000     0.00000     0

 50 52  0     1  0            999 V2000
    6.4542   -8.9000    0.0000 C   0  0  0  0  0  0           0  0  0
    4.4417  -10.3125    0.0000 C   0  0  0  0  0  0           0  0  0
    6.7417   -7.5792    0.0000 N   0  0  0  0  0  0           0  0  0
    6.1167   -8.1292    0.0000 C   0  0  0  0  0  0           0  0  0
    0.8667  -10.7250    0.0000 C   0  0  0  0  0  0           0  0  0
    7.3042  -10.3125    0.0000 C   0  0  0  0  0  0           0  0  0
    5.1542  -10.7250    0.0000 N   0  0  0  0  0  0           0  0  0
    7.2875   -8.8042    0.0000 C   0  0  0  0  0  0           0  0  0
    0.1542  -10.3125    0.0000 C   0  0  1  0  0  0           0  0  0
   -0.5583  -10.7250    0.0000 N   0  0  0  0  0  0           0  0  0
    6.5875  -10.7250    0.0000 C   0  0  0  0  0  0           0  0  0
    3.7292  -10.7250    0.0000 C   0  0  2  0  0  0           0  0  0
    1.5875  -10.3125    0.0000 C   0  0  0  0  0  0           0  0  0
    9.4417  -10.7250    0.0000 C   0  0  0  0  0  0           0  0  0
    5.8750  -10.3125    0.0000 C   0  0  2  0  0  0           0  0  0
   10.1625  -10.3125    0.0000 C   0  0  0  0  0  0           0  0  0
    8.0167  -10.7250    0.0000 N   0  0  0  0  0  0           0  0  0
    7.4542   -8.0000    0.0000 C   0  0  0  0  0  0           0  0  0
   -1.2708  -10.3125    0.0000 C   0  0  0  0  0  0           0  0  0
    5.8750   -9.4875    0.0000 C   0  0  0  0  0  0           0  0  0
    8.7292  -10.3125    0.0000 C   0  0  1  0  0  0           0  0  0
    2.3000  -10.7250    0.0000 N   0  0  0  0  0  0           0  0  0
    4.4417   -9.4875    0.0000 O   0  0  0  0  0  0           0  0  0
    3.0167  -10.3125    0.0000 C   0  0  0  0  0  0           0  0  0
    7.3042   -9.4875    0.0000 O   0  0  0  0  0  0           0  0  0
    1.5875   -9.4875    0.0000 O   0  0  0  0  0  0           0  0  0
   10.1417   -9.5875    0.0000 O   0  0  0  0  0  0           0  0  0
   -1.2708   -9.4875    0.0000 O   0  0  0  0  0  0           0  0  0
    0.1542   -9.4875    0.0000 C   0  0  2  0  0  0           0  0  0
    8.7292   -9.4875    0.0000 C   0  0  0  0  0  0           0  0  0
   10.8750  -10.7250    0.0000 N   0  0  0  0  0  0           0  0  0
    2.3000  -14.0250    0.0000 N   0  0  0  0  0  0           0  0  0
    9.3167   -8.9000    0.0000 C   0  0  0  0  0  0           0  0  0
    0.8667   -9.0750    0.0000 O   0  0  0  0  0  0           0  0  0
    3.7292  -11.5500    0.0000 C   0  0  0  0  0  0           0  0  0
    7.9000   -9.3625    0.0000 C   0  0  0  0  0  0           0  0  0
   -1.9833  -10.7250    0.0000 C   0  0  0  0  0  0           0  0  0
    8.2417   -7.7417    0.0000 C   0  0  0  0  0  0           0  0  0
    2.3000  -13.2000    0.0000 C   0  0  0  0  0  0           0  0  0
   -0.5583   -9.0750    0.0000 C   0  0  0  0  0  0           0  0  0
    9.0917   -8.1042    0.0000 C   0  0  0  0  0  0           0  0  0
   10.1167   -9.1042    0.0000 C   0  0  0  0  0  0           0  0  0
    3.0167  -11.9625    0.0000 C   0  0  0  0  0  0           0  0  0
    3.0167  -12.7875    0.0000 C   0  0  0  0  0  0           0  0  0
    8.6875   -9.1042    0.0000 C   0  0  0  0  0  0           0  0  0
    8.8625   -8.2917    0.0000 C   0  0  0  0  0  0           0  0  0
   10.7000   -8.5167    0.0000 C   0  0  0  0  0  0           0  0  0
    9.6667   -7.5042    0.0000 C   0  0  0  0  0  0           0  0  0
   10.4792   -7.7167    0.0000 C   0  0  0  0  0  0           0  0  0
    0.1542  -11.1375    0.0000 H   0  0  0  0  0  0           0  0  0
  2  7  1  0     0  0
  3  4  1  0     0  0
  4  1  2  0     0  0
  5 13  1  0     0  0
  6 11  1  0     0  0
  7 15  1  0     0  0
  8  1  1  0     0  0
  9  5  1  0     0  0
 10  9  1  0     0  0
 11 15  1  0     0  0
 12  2  1  0     0  0
 13 22  1  0     0  0
 14 21  1  0     0  0
 15 20  1  1     0  0
 16 14  1  0     0  0
 17  6  1  0     0  0
 18  8  2  0     0  0
 19 10  1  0     0  0
 20  1  1  0     0  0
 21 17  1  0     0  0
 22 24  1  0     0  0
 23  2  2  0     0  0
 24 12  1  0     0  0
 25  6  2  0     0  0
 26 13  2  0     0  0
 27 16  2  0     0  0
 28 19  2  0     0  0
 29  9  1  0     0  0
 21 30  1  1     0  0
 31 16  1  0     0  0
 32 39  1  0     0  0
 33 30  1  0     0  0
 29 34  1  1     0  0
 12 35  1  1     0  0
 36  8  1  0     0  0
 37 19  1  0     0  0
 38 18  1  0     0  0
 39 44  1  0     0  0
 40 29  1  0     0  0
 41 33  1  0     0  0
 42 33  2  0     0  0
 43 35  1  0     0  0
 44 43  1  0     0  0
 45 36  2  0     0  0
 46 45  1  0     0  0
 47 42  1  0     0  0
 48 41  2  0     0  0
 49 47  2  0     0  0
  9 50  1  6     0  0
 18  3  1  0     0  0
 46 38  2  0     0  0
 49 48  1  0     0  0
M  END