
  SciTegic12231509382D

 29 32  0  0  0  0            999 V2000
    7.3837   -3.7966    0.0000 C   0  0
    5.9547   -3.7966    0.0000 S   0  0
    3.0968   -3.7966    0.0000 C   0  0
    3.0968   -2.9716    0.0000 N   0  0
    6.6692   -3.3841    0.0000 N   0  0
    3.8113   -4.2091    0.0000 C   0  0
    7.3837   -4.6216    0.0000 C   0  0
    8.0981   -3.3841    0.0000 C   0  0
    8.8126   -3.7966    0.0000 C   0  0
    8.0981   -5.0341    0.0000 C   0  0
    8.8126   -4.6216    0.0000 C   0  0
    2.3824   -4.2091    0.0000 C   0  0
    3.8113   -5.0341    0.0000 C   0  0
    3.8113   -2.5591    0.0000 C   0  0
    5.2402   -4.2091    0.0000 C   0  0
    4.5258   -3.7966    0.0000 C   0  0
    3.0968   -5.4466    0.0000 O   0  0
    2.3824   -5.0341    0.0000 C   0  0
    5.5422   -3.0821    0.0000 O   0  0
    6.3672   -4.5110    0.0000 O   0  0
    2.3824   -2.5591    0.0000 C   0  0
    3.8113   -1.7341    0.0000 C   0  0
    4.5258   -2.9716    0.0000 O   0  0
    4.5258   -5.4466    0.0000 C   0  0
    5.2402   -5.0341    0.0000 C   0  0
    2.3824   -1.7341    0.0000 C   0  0
    3.0968   -1.3216    0.0000 C   0  0
    2.1002   -5.8093    0.0000 C   0  0
    1.5699   -4.8908    0.0000 C   0  0
  2  5  1  0
  3  6  1  0
  4  3  1  0
  5  1  1  0
  6 16  2  0
  7  1  2  0
  8  1  1  0
  9  8  2  0
 10  7  1  0
 11  9  1  0
 12  3  2  0
 13 24  2  0
 14  4  1  0
 15  2  1  0
 16 15  1  0
 17 13  1  0
 18 17  1  0
 19  2  2  0
 20  2  2  0
 21  4  1  0
 22 14  1  0
 23 14  2  0
 24 25  1  0
 25 15  2  0
 26 21  2  0
 27 26  1  0
 28 18  1  0
 29 18  1  0
 11 10  2  0
 13  6  1  0
 12 18  1  0
 27 22  2  0
M  END