
          05080814032D 1   1.00000     0.00000     0

 32 34  0     0  0            999 V2000
   13.5944    2.4625    0.0000 N   0  0  0  0  0  0           0  0  0
   13.5932    1.6352    0.0000 C   0  0  0  0  0  0           0  0  0
   14.3081    1.2223    0.0000 N   0  0  0  0  0  0           0  0  0
   15.0245    1.6356    0.0000 C   0  0  0  0  0  0           0  0  0
   15.0216    2.4662    0.0000 C   0  0  0  0  0  0           0  0  0
   14.3062    2.8753    0.0000 C   0  0  0  0  0  0           0  0  0
   15.7396    1.2243    0.0000 N   0  0  0  0  0  0           0  0  0
   15.7409    0.3993    0.0000 C   0  0  0  0  0  0           0  0  0
   16.4560   -0.0121    0.0000 C   0  0  3  0  0  0           0  0  0
   16.4533   -0.8339    0.0000 C   0  0  0  0  0  0           0  0  0
   17.1643   -1.2452    0.0000 C   0  0  0  0  0  0           0  0  0
   17.8806   -0.8351    0.0000 C   0  0  3  0  0  0           0  0  0
   17.8813   -0.0092    0.0000 C   0  0  0  0  0  0           0  0  0
   17.1657    0.4067    0.0000 C   0  0  0  0  0  0           0  0  0
   18.5941   -1.2492    0.0000 C   0  0  0  0  0  0           0  0  0
   18.5923   -2.0742    0.0000 N   0  0  0  0  0  0           0  0  0
   12.8785    1.2232    0.0000 N   0  0  0  0  0  0           0  0  0
   12.1643    1.6363    0.0000 C   0  0  0  0  0  0           0  0  0
   15.7367    2.8827    0.0000 N   0  3  0  0  0  0           0  0  0
   15.7336    3.7077    0.0000 O   0  0  0  0  0  0           0  0  0
   16.4527    2.4729    0.0000 O   0  5  0  0  0  0           0  0  0
   11.4495    1.2244    0.0000 C   0  0  0  0  0  0           0  0  0
   10.7361    1.6396    0.0000 C   0  0  0  0  0  0           0  0  0
   10.0218    1.2284    0.0000 C   0  0  0  0  0  0           0  0  0
   10.0207    0.4025    0.0000 C   0  0  0  0  0  0           0  0  0
   10.7399   -0.0104    0.0000 C   0  0  0  0  0  0           0  0  0
   11.4513    0.4032    0.0000 C   0  0  0  0  0  0           0  0  0
   12.1668   -0.0074    0.0000 O   0  0  0  0  0  0           0  0  0
   12.1689   -0.8324    0.0000 C   0  0  3  0  0  0           0  0  0
   12.1625   -1.6542    0.0000 F   0  0  0  0  0  0           0  0  0
   12.9939   -0.8346    0.0000 F   0  0  0  0  0  0           0  0  0
   11.3439   -0.8335    0.0000 F   0  0  0  0  0  0           0  0  0
  3  4  2  0     0  0
 15 16  1  0     0  0
  7  8  1  0     0  0
  2 17  1  0     0  0
 17 18  1  0     0  0
  8  9  1  0     0  0
  9 10  1  0     0  0
  4  5  1  0     0  0
 19 20  2  0     0  0
 19 21  1  0     0  0
  5 19  1  0     0  0
  2  3  1  0     0  0
 18 22  1  0     0  0
  5  6  2  0     0  0
 22 23  2  0     0  0
  6  1  1  0     0  0
 23 24  1  0     0  0
  1  2  2  0     0  0
 24 25  2  0     0  0
  9 14  1  0     0  0
 25 26  1  0     0  0
 10 11  1  0     0  0
 26 27  2  0     0  0
 27 22  1  0     0  0
 11 12  1  0     0  0
 27 28  1  0     0  0
 12 13  1  0     0  0
 28 29  1  0     0  0
 13 14  1  0     0  0
 29 30  1  0     0  0
  4  7  1  0     0  0
 29 31  1  0     0  0
 12 15  1  0     0  0
 29 32  1  0     0  0
M  CHG  2  19   1  21  -1
M  END