
  SciTegic06141115222D

 24 27  0  0  0  0            999 V2000
    6.8695   -8.9024    0.0000 N   0  0
    7.4811   -8.3421    0.0000 N   0  0
    7.1427   -7.5834    0.0000 C   0  0
    6.3142   -7.6740    0.0000 N   0  0
    6.1495   -8.4873    0.0000 C   0  0
    7.5537   -6.8634    0.0000 C   0  0
    8.3857   -6.8617    0.0000 C   0  0
    8.7962   -6.1409    0.0000 C   0  0
    7.1341   -6.1485    0.0000 C   0  0
    7.5451   -5.4272    0.0000 C   0  0
    8.3762   -5.4257    0.0000 C   0  0
    8.6302   -4.6347    0.0000 O   0  0
    7.9563   -4.1498    0.0000 C   0  0
    7.2841   -4.6371    0.0000 C   0  0
    5.3919   -8.8277    0.0000 C   0  0
    6.5683   -4.2271    0.0000 C   0  0
    6.5689   -3.3951    0.0000 C   0  0
    5.8535   -2.9784    0.0000 C   0  0
    5.1328   -3.3965    0.0000 C   0  0
    5.1362   -4.2316    0.0000 C   0  0
    5.8562   -4.6404    0.0000 C   0  0
    4.4156   -2.9853    0.0000 S   0  3
    4.4130   -2.1588    0.0000 O   0  5
    3.7010   -3.4010    0.0000 C   0  0
  1  2  1  0
  6  7  1  0
 11 12  1  0
 12 13  1  0
 13 14  2  0
 14 10  1  0
  2  3  2  0
  5 15  1  0
  7  8  2  0
  8 11  1  0
 16 17  2  0
  3  4  1  0
 17 18  1  0
 10  9  1  0
 18 19  2  0
  9  6  2  0
 19 20  1  0
  3  6  1  0
 20 21  2  0
 21 16  1  0
 14 16  1  0
 10 11  2  0
 19 22  1  0
  4  5  1  0
 22 23  1  0
  5  1  2  0
 22 24  1  0
M  CHG  2  22   1  23  -1
M  END