
          11280715482D 1   1.00000     0.00000     0

 28 31  0     0  0            999 V2000
    2.1667   -1.9000    0.0000 N   0  0  0  0  0  0           0  0  0
    1.3542   -1.7750    0.0000 C   0  0  0  0  0  0           0  0  0
    1.2250   -0.9625    0.0000 C   0  0  0  0  0  0           0  0  0
    1.9542   -0.5875    0.0000 S   0  0  0  0  0  0           0  0  0
    2.5292   -1.1625    0.0000 C   0  0  0  0  0  0           0  0  0
    5.8042   -0.8167    0.0000 S   0  0  3  0  0  0           0  0  0
    0.8042   -2.3792    0.0000 C   0  0  0  0  0  0           0  0  0
    4.9792   -0.9042    0.0000 C   0  0  0  0  0  0           0  0  0
    3.3375   -1.0750    0.0000 C   0  0  0  0  0  0           0  0  0
    5.8917   -1.6417    0.0000 O   0  0  0  0  0  0           0  0  0
    5.7250    0.0083    0.0000 O   0  0  0  0  0  0           0  0  0
    0.5125   -0.5625    0.0000 C   0  0  0  0  0  0           0  0  0
    1.0542   -3.1667    0.0000 C   0  0  0  0  0  0           0  0  0
   -0.9333    0.2458    0.0000 N   0  0  0  0  0  0           0  0  0
    4.4917   -0.2292    0.0000 C   0  0  0  0  0  0           0  0  0
    4.6417   -1.6542    0.0000 C   0  0  0  0  0  0           0  0  0
    3.6750   -0.3167    0.0000 C   0  0  0  0  0  0           0  0  0
    3.8250   -1.7417    0.0000 C   0  0  0  0  0  0           0  0  0
    6.6292   -0.7375    0.0000 C   0  0  0  0  0  0           0  0  0
    0.5042   -3.7750    0.0000 C   0  0  0  0  0  0           0  0  0
    0.0000   -2.2042    0.0000 C   0  0  0  0  0  0           0  0  0
   -0.5583   -2.8167    0.0000 C   0  0  0  0  0  0           0  0  0
   -0.2208    0.6708    0.0000 C   0  0  0  0  0  0           0  0  0
   -0.9208   -0.5792    0.0000 C   0  0  0  0  0  0           0  0  0
    0.5000    0.2625    0.0000 C   0  0  0  0  0  0           0  0  0
   -0.1958   -0.9792    0.0000 C   0  0  0  0  0  0           0  0  0
   -0.2958   -3.6000    0.0000 C   0  0  0  0  0  0           0  0  0
    0.7500   -4.5667    0.0000 C   0  0  0  0  0  0           0  0  0
  2  1  1  0     0  0
  3  2  2  0     0  0
  4  5  1  0     0  0
  5  1  2  0     0  0
  6  8  1  0     0  0
  7  2  1  0     0  0
  8 16  2  0     0  0
  9  5  1  0     0  0
 10  6  2  0     0  0
 11  6  2  0     0  0
 12  3  1  0     0  0
 13  7  1  0     0  0
 14 24  1  0     0  0
 15 17  2  0     0  0
 16 18  1  0     0  0
 17  9  1  0     0  0
 18  9  2  0     0  0
 19  6  1  0     0  0
 20 13  2  0     0  0
 21  7  2  0     0  0
 22 21  1  0     0  0
 23 25  1  0     0  0
 24 26  2  0     0  0
 25 12  2  0     0  0
 26 12  1  0     0  0
 27 22  2  0     0  0
 28 20  1  0     0  0
  4  3  1  0     0  0
 15  8  1  0     0  0
 27 20  1  0     0  0
 23 14  2  0     0  0
M  END