
  SciTegic11301210262D

 22 24  0  0  0  0            999 V2000
   10.7250  -11.1964    0.0000 C   0  0
   11.1375  -11.9109    0.0000 O   0  0
   11.1375  -10.4820    0.0000 O   0  0
   11.9625  -11.9109    0.0000 C   0  0  2  0  0  0
   12.3750  -12.6254    0.0000 C   0  0
   13.2000  -12.6254    0.0000 C   0  0  1  0  0  0
   13.6125  -11.9109    0.0000 N   0  0
   13.2000  -11.1964    0.0000 C   0  0  1  0  0  0
   12.3750  -11.1964    0.0000 C   0  0
   14.0250  -11.1964    0.0000 C   0  0
   14.0250  -12.6254    0.0000 C   0  0
   14.4375  -11.9109    0.0000 C   0  0
   13.2000  -13.4504    0.0000 H   0  0
   13.2000  -10.3714    0.0000 H   0  0
    9.9000  -11.1964    0.0000 C   0  0
    9.4875  -10.4819    0.0000 C   0  0
    8.6625  -10.4819    0.0000 C   0  0
    8.2500  -11.1964    0.0000 C   0  0
    8.6625  -11.9109    0.0000 C   0  0
    9.4875  -11.9109    0.0000 C   0  0
    8.2500  -12.6254    0.0000 Cl  0  0
    8.2500   -9.7675    0.0000 Cl  0  0
  1  2  1  0
  1  3  2  0
  4  2  1  1
  4  5  1  0
  9  4  1  0
  5  6  1  0
  6  7  1  0
  7  8  1  0
  8  9  1  0
  8 10  1  0
  6 11  1  0
 10 11  1  0
  7 12  1  0
  6 13  1  6
  8 14  1  6
  1 15  1  0
 15 16  1  0
 15 20  2  0
 16 17  2  0
 17 18  1  0
 18 19  2  0
 19 20  1  0
 19 21  1  0
 17 22  1  0
M  END