
          11280714552D 1   1.00000     0.00000     0

 34 37  0     0  0            999 V2000
    5.8500   -5.2542    0.0000 N   0  0  3  0  0  0           0  0  0
    7.2750   -6.0792    0.0000 N   0  0  3  0  0  0           0  0  0
    2.9917   -5.2542    0.0000 C   0  0  3  0  0  0           0  0  0
    2.9917   -6.0792    0.0000 C   0  0  0  0  0  0           0  0  0
    2.2792   -4.8417    0.0000 C   0  0  0  0  0  0           0  0  0
    2.2792   -6.4917    0.0000 C   0  0  0  0  0  0           0  0  0
    3.7125   -6.4875    0.0000 C   0  0  0  0  0  0           0  0  0
    2.2792   -4.0167    0.0000 C   0  0  0  0  0  0           0  0  0
    1.5667   -5.2625    0.0000 C   0  0  0  0  0  0           0  0  0
    6.5542   -4.8375    0.0000 C   0  0  0  0  0  0           0  0  0
    6.5542   -6.4917    0.0000 C   0  0  0  0  0  0           0  0  0
    5.8417   -6.0792    0.0000 C   0  0  0  0  0  0           0  0  0
    7.2750   -5.2542    0.0000 C   0  0  0  0  0  0           0  0  0
    0.8542   -4.0167    0.0000 C   0  0  0  0  0  0           0  0  0
    2.9917   -7.7292    0.0000 C   0  0  0  0  0  0           0  0  0
   11.5625   -5.2792    0.0000 C   0  0  0  0  0  0           0  0  0
    3.7042   -4.8417    0.0000 O   0  0  0  0  0  0           0  0  0
    1.5750   -3.6042    0.0000 C   0  0  0  0  0  0           0  0  0
    2.2792   -7.3125    0.0000 C   0  0  0  0  0  0           0  0  0
    0.8542   -4.8417    0.0000 C   0  0  0  0  0  0           0  0  0
    3.7042   -7.3167    0.0000 C   0  0  0  0  0  0           0  0  0
   10.1292   -6.0917    0.0000 C   0  0  0  0  0  0           0  0  0
   12.2792   -4.8667    0.0000 F   0  0  0  0  0  0           0  0  0
    0.1417   -3.6042    0.0000 F   0  0  0  0  0  0           0  0  0
    2.9875   -8.5542    0.0000 F   0  0  0  0  0  0           0  0  0
   11.5542   -6.1042    0.0000 C   0  0  0  0  0  0           0  0  0
   10.8500   -4.8625    0.0000 C   0  0  0  0  0  0           0  0  0
   10.8292   -6.5125    0.0000 C   0  0  0  0  0  0           0  0  0
   10.1292   -5.2667    0.0000 C   0  0  0  0  0  0           0  0  0
    5.1375   -4.8417    0.0000 C   0  0  0  0  0  0           0  0  0
    7.9875   -6.4917    0.0000 C   0  0  0  0  0  0           0  0  0
    4.4167   -5.2542    0.0000 C   0  0  0  0  0  0           0  0  0
    8.7000   -6.0875    0.0000 C   0  0  0  0  0  0           0  0  0
    9.4167   -6.5000    0.0000 C   0  0  0  0  0  0           0  0  0
  2 11  1  0     0  0
  3 17  1  0     0  0
  4  3  1  0     0  0
  5  3  1  0     0  0
  6  4  2  0     0  0
  7  4  1  0     0  0
  8  5  1  0     0  0
  9  5  2  0     0  0
 10  1  1  0     0  0
 11 12  1  0     0  0
 12  1  1  0     0  0
 13 10  1  0     0  0
 14 20  2  0     0  0
 15 21  1  0     0  0
 16 27  1  0     0  0
 17 32  1  0     0  0
 18  8  2  0     0  0
 19  6  1  0     0  0
 20  9  1  0     0  0
 21  7  2  0     0  0
 22 34  1  0     0  0
 23 16  1  0     0  0
 24 14  1  0     0  0
 25 15  1  0     0  0
 26 28  1  0     0  0
 27 29  2  0     0  0
 28 22  2  0     0  0
 29 22  1  0     0  0
 30  1  1  0     0  0
 31  2  1  0     0  0
 32 30  1  0     0  0
 33 31  1  0     0  0
 34 33  1  0     0  0
 13  2  1  0     0  0
 18 14  1  0     0  0
 19 15  2  0     0  0
 26 16  2  0     0  0
M  END