
          11280714542D 1   1.00000     0.00000     0

 32 35  0     0  0            999 V2000
    2.6667   -5.0625    0.0000 N   0  0  3  0  0  0           0  0  0
    4.8125   -4.6500    0.0000 N   0  0  3  0  0  0           0  0  0
    6.2417   -3.8292    0.0000 N   0  0  3  0  0  0           0  0  0
    2.6667   -5.8875    0.0000 C   0  0  0  0  0  0           0  0  0
    3.3792   -4.6500    0.0000 C   0  0  0  0  0  0           0  0  0
    1.9542   -4.6500    0.0000 C   0  0  0  0  0  0           0  0  0
    4.0917   -5.0625    0.0000 C   0  0  0  0  0  0           0  0  0
    5.5250   -5.0625    0.0000 C   0  0  0  0  0  0           0  0  0
    4.8042   -3.8250    0.0000 C   0  0  0  0  0  0           0  0  0
    5.5292   -3.4167    0.0000 C   0  0  0  0  0  0           0  0  0
    6.2375   -4.6542    0.0000 C   0  0  0  0  0  0           0  0  0
    1.9542   -6.2917    0.0000 C   0  0  0  0  0  0           0  0  0
    0.5292   -7.1042    0.0000 C   0  0  0  0  0  0           0  0  0
    1.9542   -7.1125    0.0000 C   0  0  0  0  0  0           0  0  0
    1.2417   -5.8792    0.0000 C   0  0  0  0  0  0           0  0  0
    0.5375   -6.2875    0.0000 C   0  0  0  0  0  0           0  0  0
    1.2500   -7.5167    0.0000 C   0  0  0  0  0  0           0  0  0
    6.9542   -3.4167    0.0000 C   0  0  0  0  0  0           0  0  0
    9.1000   -3.8417    0.0000 C   0  0  0  0  0  0           0  0  0
    7.6667   -3.8375    0.0000 C   0  0  0  0  0  0           0  0  0
    1.9542   -3.8250    0.0000 C   0  0  0  0  0  0           0  0  0
    1.2417   -5.0667    0.0000 C   0  0  0  0  0  0           0  0  0
    8.3875   -3.4250    0.0000 C   0  0  0  0  0  0           0  0  0
   -0.1833   -7.5167    0.0000 C   0  0  0  0  0  0           0  0  0
    9.8042   -3.4292    0.0000 C   0  0  0  0  0  0           0  0  0
    9.0917   -4.6667    0.0000 C   0  0  0  0  0  0           0  0  0
    0.5292   -4.6500    0.0000 C   0  0  0  0  0  0           0  0  0
    1.2500   -3.4125    0.0000 C   0  0  0  0  0  0           0  0  0
    9.8042   -5.0792    0.0000 C   0  0  0  0  0  0           0  0  0
   10.5167   -3.8417    0.0000 C   0  0  0  0  0  0           0  0  0
   10.5167   -4.6667    0.0000 C   0  0  0  0  0  0           0  0  0
    0.5292   -3.8250    0.0000 C   0  0  0  0  0  0           0  0  0
  2  7  1  0     0  0
  3 10  1  0     0  0
  4  1  1  0     0  0
  5  1  1  0     0  0
  6  1  1  0     0  0
  7  5  1  0     0  0
  8  2  1  0     0  0
  9  2  1  0     0  0
 10  9  1  0     0  0
 11  8  1  0     0  0
 12  4  1  0     0  0
 13 16  2  0     0  0
 14 12  1  0     0  0
 15 12  2  0     0  0
 16 15  1  0     0  0
 17 14  2  0     0  0
 18  3  1  0     0  0
 19 23  1  0     0  0
 20 18  1  0     0  0
 21  6  1  0     0  0
 22  6  2  0     0  0
 23 20  1  0     0  0
 24 13  1  0     0  0
 25 19  1  0     0  0
 26 19  2  0     0  0
 27 22  1  0     0  0
 28 21  2  0     0  0
 29 26  1  0     0  0
 30 25  2  0     0  0
 31 29  2  0     0  0
 32 27  2  0     0  0
 28 32  1  0     0  0
 13 17  1  0     0  0
 11  3  1  0     0  0
 30 31  1  0     0  0
M  END