
          11280714552D 1   1.00000     0.00000     0

 33 36  0     0  0            999 V2000
    7.5417   -6.8292    0.0000 N   0  0  3  0  0  0           0  0  0
    6.1167   -6.0042    0.0000 N   0  0  3  0  0  0           0  0  0
    3.2667   -6.0042    0.0000 C   0  0  3  0  0  0           0  0  0
    3.2667   -6.8292    0.0000 C   0  0  0  0  0  0           0  0  0
    2.5500   -5.5917    0.0000 C   0  0  0  0  0  0           0  0  0
    8.9667   -6.8375    0.0000 C   0  0  0  0  0  0           0  0  0
    9.6875   -7.2500    0.0000 C   0  0  0  0  0  0           0  0  0
    2.5542   -7.2417    0.0000 C   0  0  0  0  0  0           0  0  0
    3.9792   -7.2375    0.0000 C   0  0  0  0  0  0           0  0  0
    2.5542   -4.7667    0.0000 C   0  0  0  0  0  0           0  0  0
    1.8417   -6.0125    0.0000 C   0  0  0  0  0  0           0  0  0
    6.1167   -6.8292    0.0000 C   0  0  0  0  0  0           0  0  0
    7.5417   -6.0042    0.0000 C   0  0  0  0  0  0           0  0  0
    6.8292   -5.5875    0.0000 C   0  0  0  0  0  0           0  0  0
    6.8250   -7.2417    0.0000 C   0  0  0  0  0  0           0  0  0
    1.1292   -4.7667    0.0000 C   0  0  0  0  0  0           0  0  0
    3.2625   -8.4792    0.0000 C   0  0  0  0  0  0           0  0  0
    8.2542   -7.2417    0.0000 C   0  0  0  0  0  0           0  0  0
    3.9792   -5.5917    0.0000 O   0  0  0  0  0  0           0  0  0
    1.8417   -4.3542    0.0000 C   0  0  0  0  0  0           0  0  0
    2.5500   -8.0625    0.0000 C   0  0  0  0  0  0           0  0  0
    1.1250   -5.5917    0.0000 C   0  0  0  0  0  0           0  0  0
    3.9792   -8.0667    0.0000 C   0  0  0  0  0  0           0  0  0
   10.3917   -6.8417    0.0000 C   0  0  0  0  0  0           0  0  0
    0.4125   -4.3542    0.0000 F   0  0  0  0  0  0           0  0  0
    3.2542   -9.3042    0.0000 Cl  0  0  0  0  0  0           0  0  0
    5.4042   -5.5917    0.0000 C   0  0  0  0  0  0           0  0  0
    4.6917   -6.0042    0.0000 C   0  0  0  0  0  0           0  0  0
   10.3917   -6.0167    0.0000 C   0  0  0  0  0  0           0  0  0
   11.1042   -7.2625    0.0000 C   0  0  0  0  0  0           0  0  0
   11.8250   -6.8542    0.0000 C   0  0  0  0  0  0           0  0  0
   11.1167   -5.6125    0.0000 C   0  0  0  0  0  0           0  0  0
   11.8292   -6.0292    0.0000 C   0  0  0  0  0  0           0  0  0
  2 12  1  0     0  0
  3 19  1  0     0  0
  4  3  1  0     0  0
  5  3  1  0     0  0
  6 18  1  0     0  0
  7  6  2  0     0  0
  8  4  2  0     0  0
  9  4  1  0     0  0
 10  5  1  0     0  0
 11  5  2  0     0  0
 12 15  1  0     0  0
 13  1  1  0     0  0
 14 13  1  0     0  0
 15  1  1  0     0  0
 16 22  2  0     0  0
 17 23  1  0     0  0
 18  1  1  0     0  0
 19 28  1  0     0  0
 20 10  2  0     0  0
 21  8  1  0     0  0
 22 11  1  0     0  0
 23  9  2  0     0  0
 24  7  1  0     0  0
 25 16  1  0     0  0
 26 17  1  0     0  0
 27  2  1  0     0  0
 28 27  1  0     0  0
 29 24  1  0     0  0
 30 24  2  0     0  0
 31 30  1  0     0  0
 32 29  2  0     0  0
 33 31  2  0     0  0
 14  2  1  0     0  0
 32 33  1  0     0  0
 20 16  1  0     0  0
 21 17  2  0     0  0
M  END