
  SciTegic12171313032D

 27 31  0  0  0  0            999 V2000
    9.9673   -2.5424    0.0000 C   0  0
   10.6750   -2.1338    0.0000 C   0  0  1  0  0  0
   11.3827   -2.5424    0.0000 C   0  0
   10.6750   -1.3166    0.0000 C   0  0
   10.2655   -0.0540    0.0000 N   0  0
   10.0131   -0.8312    0.0000 N   0  0
   11.0828   -0.0540    0.0000 C   0  0
   11.3370   -0.8288    0.0000 N   0  0
   12.1307   -0.9951    0.0000 N   0  0
   12.6758   -0.3895    0.0000 C   0  0
   12.4216    0.3906    0.0000 C   0  0
   11.6222    0.5599    0.0000 C   0  0
   13.4763   -0.5577    0.0000 C   0  0
   13.8099   -1.3037    0.0000 C   0  0
   14.6225   -1.2170    0.0000 N   0  0
   14.7912   -0.4174    0.0000 N   0  0
   14.0828   -0.0100    0.0000 C   0  0
   15.5372   -0.0838    0.0000 C   0  0
   11.3801   -3.3606    0.0000 C   0  0
   12.0870   -3.7691    0.0000 C   0  0
   12.0856   -2.1343    0.0000 C   0  0
   12.7931   -2.5391    0.0000 C   0  0
   12.7919   -3.3577    0.0000 C   0  0
   13.4991   -3.7663    0.0000 N   0  0
   14.2081   -3.3574    0.0000 C   0  0
   14.2053   -2.5356    0.0000 C   0  0
   13.4975   -2.1307    0.0000 C   0  0
  1  2  1  0
  2  3  1  0
  2  4  1  6
  4  8  1  0
  7  5  2  0
  5  6  1  0
  6  4  2  0
  7  8  1  0
  7 12  1  0
  8  9  1  0
  9 10  2  0
 10 11  1  0
 11 12  2  0
 13 14  1  0
 14 15  2  0
 15 16  1  0
 16 17  1  0
 17 13  2  0
 10 13  1  0
 16 18  1  0
  3 19  2  0
 19 20  1  0
 20 23  2  0
 22 21  2  0
 21  3  1  0
 22 23  1  0
 23 24  1  0
 24 25  2  0
 25 26  1  0
 26 27  2  0
 27 22  1  0
M  END