
          11280714552D 1   1.00000     0.00000     0

 34 37  0     0  0            999 V2000
    2.5625   -6.0625    0.0000 N   0  0  3  0  0  0           0  0  0
    3.2750   -5.6500    0.0000 C   0  0  0  0  0  0           0  0  0
    1.8417   -5.6500    0.0000 C   0  0  0  0  0  0           0  0  0
    6.1250   -5.6417    0.0000 N   0  0  3  0  0  0           0  0  0
    7.5417   -4.8250    0.0000 N   0  0  3  0  0  0           0  0  0
    2.5625   -6.8875    0.0000 C   0  0  0  0  0  0           0  0  0
    1.1375   -6.0667    0.0000 N   0  0  0  0  0  0           0  0  0
    3.2750   -4.8250    0.0000 O   0  0  0  0  0  0           0  0  0
    7.5417   -5.6417    0.0000 C   0  0  0  0  0  0           0  0  0
    6.8292   -6.0542    0.0000 C   0  0  0  0  0  0           0  0  0
    6.8292   -4.4167    0.0000 C   0  0  0  0  0  0           0  0  0
    6.1167   -4.8292    0.0000 C   0  0  0  0  0  0           0  0  0
    1.8500   -7.2917    0.0000 C   0  0  0  0  0  0           0  0  0
    3.9875   -6.0625    0.0000 C   0  0  0  0  0  0           0  0  0
    5.4167   -6.0625    0.0000 C   0  0  0  0  0  0           0  0  0
    8.2542   -4.4125    0.0000 C   0  0  0  0  0  0           0  0  0
   10.3917   -4.8250    0.0000 C   0  0  0  0  0  0           0  0  0
    4.7042   -5.6500    0.0000 C   0  0  0  0  0  0           0  0  0
    8.9667   -4.8250    0.0000 C   0  0  0  0  0  0           0  0  0
    1.8500   -4.8250    0.0000 C   0  0  0  0  0  0           0  0  0
    0.4167   -5.6500    0.0000 C   0  0  0  0  0  0           0  0  0
    9.6792   -4.4125    0.0000 C   0  0  0  0  0  0           0  0  0
    1.8500   -8.1125    0.0000 C   0  0  0  0  0  0           0  0  0
    1.1375   -6.8792    0.0000 C   0  0  0  0  0  0           0  0  0
   10.3917   -5.6500    0.0000 C   0  0  0  0  0  0           0  0  0
   11.1042   -4.4042    0.0000 C   0  0  0  0  0  0           0  0  0
    1.1417   -4.4125    0.0000 C   0  0  0  0  0  0           0  0  0
    0.4250   -4.8250    0.0000 C   0  0  0  0  0  0           0  0  0
    0.4292   -7.2875    0.0000 C   0  0  0  0  0  0           0  0  0
   11.1042   -6.0625    0.0000 C   0  0  0  0  0  0           0  0  0
   11.8167   -4.8167    0.0000 C   0  0  0  0  0  0           0  0  0
    1.1417   -8.5167    0.0000 C   0  0  0  0  0  0           0  0  0
    0.4250   -8.1042    0.0000 C   0  0  0  0  0  0           0  0  0
   11.8250   -5.6417    0.0000 C   0  0  0  0  0  0           0  0  0
  2  1  1  0     0  0
  3  1  1  0     0  0
  4 15  1  0     0  0
  5 11  1  0     0  0
  6  1  1  0     0  0
  7  3  2  0     0  0
  8  2  2  0     0  0
  9 10  1  0     0  0
 10  4  1  0     0  0
 11 12  1  0     0  0
 12  4  1  0     0  0
 13  6  1  0     0  0
 14  2  1  0     0  0
 15 18  1  0     0  0
 16  5  1  0     0  0
 17 22  1  0     0  0
 18 14  1  0     0  0
 19 16  1  0     0  0
 20  3  1  0     0  0
 21  7  1  0     0  0
 22 19  1  0     0  0
 23 13  1  0     0  0
 24 13  2  0     0  0
 25 17  2  0     0  0
 26 17  1  0     0  0
 27 20  2  0     0  0
 28 27  1  0     0  0
 29 24  1  0     0  0
 30 25  1  0     0  0
 31 26  2  0     0  0
 32 23  2  0     0  0
 33 29  2  0     0  0
 34 31  1  0     0  0
 21 28  2  0     0  0
 33 32  1  0     0  0
  9  5  1  0     0  0
 30 34  2  0     0  0
M  END