
  SciTegic01161211212D

 21 23  0  0  0  0            999 V2000
    5.4931    1.2581    0.0000 C   0  0
    5.4919    0.4309    0.0000 C   0  0
    6.2066    0.0181    0.0000 C   0  0
    6.2048    1.6707    0.0000 C   0  0
    6.9199    1.2617    0.0000 C   0  0
    6.9248    0.4309    0.0000 C   0  0
    7.7165    0.1788    0.0000 N   0  0
    8.2010    0.8538    0.0000 C   0  0
    7.7086    1.5230    0.0000 C   0  0
    8.1147    2.2412    0.0000 C   0  0
    8.9394    2.2486    0.0000 C   0  0
    9.3559    1.5364    0.0000 C   0  0
   10.1799    1.5434    0.0000 C   0  0
   10.5867    2.2620    0.0000 C   0  0
   10.1635    2.9749    0.0000 C   0  0
    9.3409    2.9644    0.0000 C   0  0
   10.5670    3.6943    0.0000 Br  0  0
   10.5984    0.8327    0.0000 Br  0  0
   11.4115    2.2705    0.0000 O   0  0
    9.0258    0.8587    0.0000 O   0  0
    4.7786    1.6703    0.0000 I   0  0
  9 10  2  0
  5  6  1  0
 10 11  1  0
 11 12  2  0
  2  3  1  0
 12 13  1  0
  3  6  2  0
 13 14  2  0
  1  2  2  0
 14 15  1  0
  5  4  2  0
 15 16  2  0
 16 11  1  0
  6  7  1  0
 15 17  1  0
  7  8  1  0
 13 18  1  0
  8  9  1  0
 14 19  1  0
  9  5  1  0
  8 20  2  0
  4  1  1  0
  1 21  1  0
M  END