
          11280714542D 1   1.00000     0.00000     0

 32 35  0     0  0            999 V2000
    6.1417   -4.4750    0.0000 N   0  0  3  0  0  0           0  0  0
    4.7250   -3.6542    0.0000 N   0  0  3  0  0  0           0  0  0
    1.8667   -3.6542    0.0000 C   0  0  3  0  0  0           0  0  0
    1.1542   -3.2417    0.0000 C   0  0  0  0  0  0           0  0  0
    7.5750   -4.4792    0.0000 C   0  0  0  0  0  0           0  0  0
    8.2917   -4.8917    0.0000 C   0  0  0  0  0  0           0  0  0
    1.8667   -4.4792    0.0000 C   0  0  0  0  0  0           0  0  0
    1.1542   -2.4167    0.0000 C   0  0  0  0  0  0           0  0  0
    0.4417   -3.6542    0.0000 C   0  0  0  0  0  0           0  0  0
    5.4292   -3.2292    0.0000 C   0  0  0  0  0  0           0  0  0
    5.4292   -4.8875    0.0000 C   0  0  0  0  0  0           0  0  0
    4.7167   -4.4750    0.0000 C   0  0  0  0  0  0           0  0  0
    6.1500   -3.6500    0.0000 C   0  0  0  0  0  0           0  0  0
   -0.2708   -2.4167    0.0000 C   0  0  0  0  0  0           0  0  0
    6.8625   -4.8917    0.0000 C   0  0  0  0  0  0           0  0  0
    2.5792   -3.2417    0.0000 O   0  0  0  0  0  0           0  0  0
   -0.2708   -3.2417    0.0000 C   0  0  0  0  0  0           0  0  0
    0.4500   -2.0042    0.0000 C   0  0  0  0  0  0           0  0  0
    9.0042   -4.4875    0.0000 C   0  0  0  0  0  0           0  0  0
   -0.9833   -2.0000    0.0000 F   0  0  0  0  0  0           0  0  0
    4.0125   -3.2417    0.0000 C   0  0  0  0  0  0           0  0  0
    3.2917   -3.6542    0.0000 C   0  0  0  0  0  0           0  0  0
    1.1542   -4.8875    0.0000 C   0  0  0  0  0  0           0  0  0
    2.5875   -4.8792    0.0000 C   0  0  0  0  0  0           0  0  0
    9.0042   -3.6667    0.0000 C   0  0  0  0  0  0           0  0  0
    9.7125   -4.9042    0.0000 C   0  0  0  0  0  0           0  0  0
    2.5792   -5.7125    0.0000 C   0  0  0  0  0  0           0  0  0
    1.1542   -5.7042    0.0000 C   0  0  0  0  0  0           0  0  0
   10.4292   -4.5000    0.0000 C   0  0  0  0  0  0           0  0  0
    9.7167   -3.2542    0.0000 C   0  0  0  0  0  0           0  0  0
   10.4375   -3.6750    0.0000 C   0  0  0  0  0  0           0  0  0
    1.8667   -6.1250    0.0000 C   0  0  0  0  0  0           0  0  0
  2 10  1  0     0  0
  3 16  1  0     0  0
  4  3  1  0     0  0
  5 15  1  0     0  0
  6  5  2  0     0  0
  7  3  1  0     0  0
  8  4  1  0     0  0
  9  4  2  0     0  0
 10 13  1  0     0  0
 11  1  1  0     0  0
 12 11  1  0     0  0
 13  1  1  0     0  0
 14 17  2  0     0  0
 15  1  1  0     0  0
 16 22  1  0     0  0
 17  9  1  0     0  0
 18  8  2  0     0  0
 19  6  1  0     0  0
 20 14  1  0     0  0
 21  2  1  0     0  0
 22 21  1  0     0  0
 23  7  2  0     0  0
 24  7  1  0     0  0
 25 19  1  0     0  0
 26 19  2  0     0  0
 27 24  2  0     0  0
 28 23  1  0     0  0
 29 26  1  0     0  0
 30 25  2  0     0  0
 31 29  2  0     0  0
 32 27  1  0     0  0
 12  2  1  0     0  0
 31 30  1  0     0  0
 18 14  1  0     0  0
 28 32  2  0     0  0
M  END