
  SciTegic06051315212D

 24 27  0  0  0  0            999 V2000
    1.0483   -3.1326    0.0000 O   0  0
    1.7623   -2.7198    0.0000 S   0  0
    1.0530   -2.3114    0.0000 O   0  0
    3.4033   -4.1367    0.0000 C   0  0
    4.2255   -4.1394    0.0000 C   0  0
    4.6337   -3.4257    0.0000 C   0  0
    4.2261   -2.7202    0.0000 C   0  0
    5.4541   -3.4259    0.0000 C   0  0
    5.8609   -4.1359    0.0000 C   0  0
    6.6856   -4.1376    0.0000 C   0  0
    7.0920   -3.4258    0.0000 C   0  0
    6.6843   -2.7234    0.0000 C   0  0
    5.8610   -2.7211    0.0000 C   0  0
    2.9925   -3.4278    0.0000 C   0  0
    3.4031   -2.7224    0.0000 C   0  0
    2.1718   -3.4261    0.0000 N   0  0
    2.1748   -2.0118    0.0000 C   0  0
    2.9925   -2.0103    0.0000 C   0  0
    3.2463   -1.2345    0.0000 N   0  0
    2.5796   -0.7590    0.0000 N   0  0
    1.9216   -1.2359    0.0000 C   0  0
    1.7510   -4.1422    0.0000 C   0  0
    7.9092   -3.4261    0.0000 C   0  0
    8.3176   -4.1339    0.0000 C   0  0
  2  1  2  0
  3  2  2  0
 14  4  2  0
  4  5  1  0
  5  6  2  0
  6  7  1  0
  7 15  2  0
  8  9  2  0
  9 10  1  0
 10 11  2  0
 11 12  1  0
 12 13  2  0
 13  8  1  0
  6  8  1  0
 14 15  1  0
 14 16  1  0
 15 18  1  0
 17  2  1  0
  2 16  1  0
 17 18  2  0
 18 19  1  0
 19 20  1  0
 20 21  2  0
 21 17  1  0
 16 22  1  0
 11 23  1  0
 23 24  1  0
M  END