
  CDK    9/16/09,10:2

 23 26  0  0  0  0  0  0  0  0999 V2000
   14.9140    2.2661    0.0000 C   0  0  0  0  0  0  0  0  0  0  0  0
   14.0901    2.2714    0.0000 C   0  0  0  0  0  0  0  0  0  0  0  0
   13.6754    1.5616    0.0000 C   0  0  0  0  0  0  0  0  0  0  0  0
   14.0834    0.8460    0.0000 C   0  0  0  0  0  0  0  0  0  0  0  0
   14.9105    0.8447    0.0000 C   0  0  0  0  0  0  0  0  0  0  0  0
   15.3216    1.5551    0.0000 C   0  0  0  0  0  0  0  0  0  0  0  0
   12.8496    1.5660    0.0000 C   0  0  0  0  0  0  0  0  0  0  0  0
   12.4329    0.8530    0.0000 O   0  0  0  0  0  0  0  0  0  0  0  0
   12.8420    0.1357    0.0000 C   0  0  0  0  0  0  0  0  0  0  0  0
   12.5044   -0.6170    0.0000 N   0  0  0  0  0  0  0  0  0  0  0  0
   13.1152   -1.1728    0.0000 N   0  0  0  0  0  0  0  0  0  0  0  0
   13.8325   -0.7636    0.0000 C   0  0  0  0  0  0  0  0  0  0  0  0
   13.6650    0.0449    0.0000 O   0  0  0  0  0  0  0  0  0  0  0  0
   14.5829   -1.1012    0.0000 C   0  0  0  0  0  0  0  0  0  0  0  0
   14.6637   -1.9241    0.0000 C   0  0  0  0  0  0  0  0  0  0  0  0
   15.4155   -2.2639    0.0000 C   0  0  0  0  0  0  0  0  0  0  0  0
   15.2500   -0.6202    0.0000 C   0  0  0  0  0  0  0  0  0  0  0  0
   16.0020   -0.9562    0.0000 C   0  0  0  0  0  0  0  0  0  0  0  0
   16.0834   -1.7811    0.0000 C   0  0  0  0  0  0  0  0  0  0  0  0
   16.8931   -1.9584    0.0000 O   0  0  0  0  0  0  0  0  0  0  0  0
   17.3120   -1.2432    0.0000 C   0  0  0  0  0  0  0  0  0  0  0  0
   16.7612   -0.6239    0.0000 C   0  0  0  0  0  0  0  0  0  0  0  0
   15.3304    2.9792    0.0000 F   0  0  0  0  0  0  0  0  0  0  0  0
  6  1  1  0  0  0  0 
 10 11  1  0  0  0  0 
 11 12  2  0  0  0  0 
 12 13  1  0  0  0  0 
 13  9  1  0  0  0  0 
  1  2  2  0  0  0  0 
  3  7  1  0  0  0  0 
 14 15  2  0  0  0  0 
  3  4  2  0  0  0  0 
 15 16  1  0  0  0  0 
 16 19  2  0  0  0  0 
  7  8  1  0  0  0  0 
 18 17  2  0  0  0  0 
 17 14  1  0  0  0  0 
 12 14  1  0  0  0  0 
 18 19  1  0  0  0  0 
  8  9  1  0  0  0  0 
  9 10  2  0  0  0  0 
  4  5  1  0  0  0  0 
  2  3  1  0  0  0  0 
 19 20  1  0  0  0  0 
 20 21  1  0  0  0  0 
 21 22  1  0  0  0  0 
 22 18  1  0  0  0  0 
  5  6  2  0  0  0  0 
  1 23  1  0  0  0  0 
M  END