
  SciTegic12231509382D

 23 26  0  0  1  0            999 V2000
   -0.6962    0.9946    0.0000 O   0  0
   -0.8492    3.3332    0.0000 O   0  0
    3.9565    0.9958    0.0000 N   0  0
   -5.2106    1.5329    0.0000 N   0  0
   -2.9491    2.2925    0.0000 C   0  0
   -3.8088    3.4984    0.0000 C   0  0
    3.1599   -0.3718    0.0000 C   0  0  1  0  0  0
    3.1997    2.3367    0.0000 C   0  0  2  0  0  0
    0.8099    0.9958    0.0000 C   0  0  2  0  0  0
   -5.2273    3.0262    0.0000 C   0  0
   -1.4483    2.2935    0.0000 C   0  0
    1.6065    2.3367    0.0000 C   0  0
    1.5799   -0.3718    0.0000 C   0  0
   -3.8097    1.0769    0.0000 C   0  0
    2.2040    0.1593    0.0000 C   0  0
    2.2040    1.9119    0.0000 C   0  0
   -3.4912    4.9685    0.0000 C   0  0
   -6.3627    4.0125    0.0000 C   0  0
   -4.6323    5.9721    0.0000 C   0  0
    5.1565    0.9958    0.0000 C   0  0
   -6.0508    5.4999    0.0000 C   0  0
    2.2200    2.1364    0.0000 H   0  0
    2.1919   -0.1209    0.0000 H   0  0
  9  1  1  6
  1 11  1  0
  2 11  2  0
  3  7  1  0
  3  8  1  0
  3 20  1  0
  4 10  1  0
  4 14  1  0
  5  6  1  0
  5 11  1  0
  5 14  2  0
  6 10  1  0
  6 17  2  0
  7 13  1  0
  7 15  1  0
  8 12  1  0
  8 16  1  0
  9 12  1  0
  9 13  1  0
 10 18  2  0
 15 16  1  0
 17 19  1  0
 18 21  1  0
 19 21  2  0
  8 22  1  6
  7 23  1  6
M  END