
  SciTegic12231509382D

 15 16  0  0  0  0            999 V2000
    2.2375   -0.1875    0.0000 C   0  0
    3.0167   -1.2667    0.0000 N   0  0
    1.5167    0.2250    0.0000 C   0  0
    3.5042   -0.6000    0.0000 C   0  0
    3.0167    0.0708    0.0000 C   0  0
    0.0917    0.2208    0.0000 C   0  0
    0.8042   -0.1875    0.0000 C   0  0
    2.2375   -1.0125    0.0000 C   0  0
    4.3375    1.8125    0.0000 N   0  0
    0.0917    1.0458    0.0000 O   0  0
    0.8042   -1.0167    0.0000 C   0  0
    1.5167   -1.4292    0.0000 C   0  0
   -0.6208   -0.1917    0.0000 N   0  0
    3.2750    0.8583    0.0000 C   0  0
    4.0792    1.0250    0.0000 C   0  0
  2  8  1  0
  3  1  2  0
  4  5  2  0
  5  1  1  0
  6  7  1  0
  7  3  1  0
  8  1  1  0
  9 15  1  0
 10  6  2  0
 11 12  1  0
 12  8  2  0
 13  6  1  0
 14  5  1  0
 15 14  1  0
  2  4  1  0
  7 11  2  0
M  END