
  SciTegic09081514182D

 30 34  0  0  0  0            999 V2000
    0.0186    0.7828    0.0000 C   0  0
   -0.8574   -0.4287    0.0000 C   0  0
    0.0186   -1.6401    0.0000 C   0  0
    1.4351   -1.1556    0.0000 N   0  0
    1.4351    0.3168    0.0000 C   0  0
    1.8402    5.9014    0.0000 C   0  0
    2.0012    7.3927    0.0000 C   0  0
    0.7901    8.2778    0.0000 N   0  0
   -0.5819    7.6715    0.0000 C   0  0
   -0.7429    6.1802    0.0000 C   0  0
    0.4679    5.2953    0.0000 C   0  0
    0.3168    3.8022    0.0000 N   0  0
    1.5656    2.8889    0.0000 C   0  0
    1.3979    1.3979    0.0000 C   0  0
   -1.1742    1.6588    0.0000 C   0  0
   -1.0251    3.1871    0.0000 C   0  0
   -2.1156    5.5736    0.0000 C   0  0
   -2.2790    4.0825    0.0000 C   0  0
   -3.6520    3.4784    0.0000 C   0  0
   -4.8616    4.3654    0.0000 C   0  0
   -4.6983    5.8565    0.0000 C   0  0
   -3.3253    6.4606    0.0000 C   0  0
    2.8090    5.1933    0.0000 Cl  0  0
    2.4072    1.0204    0.0000 O   0  0
   -6.2353    3.7610    0.0000 C   0  0
   -6.5359    2.3044    0.0000 C   0  0
   -8.0286    2.1566    0.0000 N   0  0
   -8.6305    3.5305    0.0000 N   0  0
   -7.5099    4.5275    0.0000 C   0  0
   -9.8028    3.7870    0.0000 C   0  0
  1  2  1  0
  2  3  1  0
  3  4  1  0
  4  5  1  0
  5  1  1  0
  6  7  2  0
  7  8  1  0
  8  9  2  0
  9 10  1  0
 10 11  2  0
 11  6  1  0
 12 13  1  0
 12 16  1  0
 13 14  1  0
 14  1  1  0
  1 15  1  0
 15 16  1  0
 11 12  1  0
 17 18  2  0
 18 19  1  0
 19 20  2  0
 20 21  1  0
 21 22  2  0
 22 17  1  0
 10 17  1  0
  6 23  1  0
  5 24  2  0
 25 26  1  0
 26 27  2  0
 27 28  1  0
 28 29  1  0
 29 25  2  0
 20 25  1  0
 28 30  1  0
M  END