
          11280714452D 1   1.00000     0.00000     0

 28 31  0     1  0            999 V2000
    0.4750   -2.0125    0.0000 S   0  0  3  0  0  0           0  0  0
    2.0292   -2.3042    0.0000 C   0  0  0  0  0  0           0  0  0
    2.5542   -2.0042    0.0000 C   0  0  1  0  0  0           0  0  0
    2.5542   -1.4042    0.0000 N   0  0  3  0  0  0           0  0  0
    3.0750   -2.3042    0.0000 C   0  0  1  0  0  0           0  0  0
    3.0750   -2.9125    0.0000 C   0  0  3  0  0  0           0  0  0
    2.5542   -3.2125    0.0000 O   0  0  0  0  0  0           0  0  0
    2.0292   -2.9125    0.0000 C   0  0  0  0  0  0           0  0  0
    0.9917   -2.3125    0.0000 C   0  0  0  0  0  0           0  0  0
    1.5125   -2.0042    0.0000 C   0  0  0  0  0  0           0  0  0
    3.0417   -1.0542    0.0000 C   0  0  0  0  0  0           0  0  0
   -0.0333   -1.2167    0.0000 O   0  0  0  0  0  0           0  0  0
    0.8417   -1.1875    0.0000 O   0  0  0  0  0  0           0  0  0
   -0.0458   -2.3125    0.0000 C   0  0  0  0  0  0           0  0  0
    1.5125   -3.2125    0.0000 C   0  0  0  0  0  0           0  0  0
    0.9917   -2.9125    0.0000 C   0  0  0  0  0  0           0  0  0
    3.6042   -1.2417    0.0000 O   0  0  0  0  0  0           0  0  0
    3.5917   -2.0042    0.0000 O   0  0  0  0  0  0           0  0  0
    2.0667   -1.0542    0.0000 C   0  0  0  0  0  0           0  0  0
    3.6750   -2.9125    0.0000 C   0  0  0  0  0  0           0  0  0
    3.3667   -3.4292    0.0000 C   0  0  0  0  0  0           0  0  0
    2.8542   -0.4875    0.0000 C   0  0  0  0  0  0           0  0  0
    2.2542   -0.4792    0.0000 C   0  0  0  0  0  0           0  0  0
   -0.5625   -2.0042    0.0000 C   0  0  0  0  0  0           0  0  0
   -0.0458   -2.9042    0.0000 C   0  0  0  0  0  0           0  0  0
   -0.5583   -3.2042    0.0000 C   0  0  0  0  0  0           0  0  0
   -1.0833   -2.3042    0.0000 C   0  0  0  0  0  0           0  0  0
   -1.0833   -2.9042    0.0000 C   0  0  0  0  0  0           0  0  0
  2 10  2  0     0  0
  3  2  1  0     0  0
  3  4  1  1     0  0
  5  3  1  0     0  0
  6  7  1  0     0  0
  7  8  1  0     0  0
  8 15  2  0     0  0
  9  1  1  0     0  0
 10  9  1  0     0  0
 11  4  1  0     0  0
 12  1  2  0     0  0
 13  1  2  0     0  0
 14  1  1  0     0  0
 15 16  1  0     0  0
 16  9  2  0     0  0
 17 11  2  0     0  0
  5 18  1  6     0  0
 19  4  1  0     0  0
 20  6  1  0     0  0
 21  6  1  0     0  0
 22 11  1  0     0  0
 23 19  1  0     0  0
 24 14  2  0     0  0
 25 14  1  0     0  0
 26 25  2  0     0  0
 27 24  1  0     0  0
 28 26  1  0     0  0
 27 28  2  0     0  0
  2  8  1  0     0  0
  6  5  1  0     0  0
 22 23  1  0     0  0
M  END