
  CDK    9/16/09,10:4

 12 13  0  0  0  0  0  0  0  0999 V2000
    4.6542    2.2583    0.0000 N   0  0  0  0  0  0  0  0  0  0  0  0
    4.6542    1.4333    0.0000 C   0  0  0  0  0  0  0  0  0  0  0  0
    5.3662    1.0250    0.0000 N   0  0  0  0  0  0  0  0  0  0  0  0
    5.3662    2.6750    0.0000 C   0  0  0  0  0  0  0  0  0  0  0  0
    6.0782    2.2583    0.0000 C   0  0  0  0  0  0  0  0  0  0  0  0
    6.0782    1.4323    0.0000 C   0  0  0  0  0  0  0  0  0  0  0  0
    6.8638    1.1770    0.0000 N   0  0  0  0  0  0  0  0  0  0  0  0
    7.3494    1.8453    0.0000 C   0  0  0  0  0  0  0  0  0  0  0  0
    6.8638    2.5135    0.0000 N   0  0  0  0  0  0  0  0  0  0  0  0
    5.3662    3.5000    0.0000 N   0  0  0  0  0  0  0  0  0  0  0  0
    7.1186    0.3923    0.0000 C   0  0  0  0  0  0  0  0  0  0  0  0
    6.5665   -0.2207    0.0000 C   0  0  0  0  0  0  0  0  0  0  0  0
  1  2  1  0  0  0  0 
  1  4  2  0  0  0  0 
  2  3  2  0  0  0  0 
  3  6  1  0  0  0  0 
  6  7  1  0  0  0  0 
  7  8  1  0  0  0  0 
  8  9  2  0  0  0  0 
  9  5  1  0  0  0  0 
  5  4  1  0  0  0  0 
  4 10  1  0  0  0  0 
  5  6  2  0  0  0  0 
  7 11  1  0  0  0  0 
 11 12  1  0  0  0  0 
M  END