
          11280715302D 1   1.00000     0.00000     0

 22 26  0     0  0            999 V2000
    8.0000   -8.0167    0.0000 C   0  0  3  0  0  0           0  0  0
    8.4250   -7.5500    0.0000 C   0  0  3  0  0  0           0  0  0
    8.6375   -8.3417    0.0000 O   0  0  0  0  0  0           0  0  0
    5.2000   -6.0792    0.0000 C   0  0  0  0  0  0           0  0  0
    9.6417   -6.6500    0.0000 N   0  0  3  0  0  0           0  0  0
    8.7167   -6.5875    0.0000 C   0  0  3  0  0  0           0  0  0
    8.3292   -6.8625    0.0000 C   0  0  3  0  0  0           0  0  0
    5.8250   -5.7542    0.0000 C   0  0  0  0  0  0           0  0  0
    5.1042   -6.7667    0.0000 C   0  0  0  0  0  0           0  0  0
    4.5792   -5.7875    0.0000 C   0  0  0  0  0  0           0  0  0
    4.4292   -6.8917    0.0000 N   0  0  0  0  0  0           0  0  0
    7.7375   -6.0042    0.0000 C   0  0  0  0  0  0           0  0  0
    8.1042   -5.7167    0.0000 C   0  0  0  0  0  0           0  0  0
    6.9917   -5.7667    0.0000 C   0  0  3  0  0  0           0  0  0
    6.4042   -6.1292    0.0000 O   0  0  0  0  0  0           0  0  0
    4.1000   -6.2917    0.0000 C   0  0  0  0  0  0           0  0  0
    5.8625   -5.0750    0.0000 O   0  0  0  0  0  0           0  0  0
   10.3875   -6.3000    0.0000 C   0  0  0  0  0  0           0  0  0
    4.3792   -5.1250    0.0000 C   0  0  0  0  0  0           0  0  0
    3.4292   -6.1292    0.0000 C   0  0  0  0  0  0           0  0  0
    3.7042   -4.9625    0.0000 C   0  0  0  0  0  0           0  0  0
    3.2292   -5.4625    0.0000 C   0  0  0  0  0  0           0  0  0
  2  1  1  0     0  0
  3  1  1  0     0  0
  4  8  1  0     0  0
  5  7  1  0     0  0
  6  2  1  0     0  0
  7  1  1  0     0  0
  8 15  1  0     0  0
  9  4  2  0     0  0
 10  4  1  0     0  0
 11  9  1  0     0  0
 12  7  1  0     0  0
 13  6  1  0     0  0
 14 12  1  0     0  0
 15 14  1  0     0  0
 16 10  2  0     0  0
 17  8  2  0     0  0
 18  5  1  0     0  0
 19 10  1  0     0  0
 20 16  1  0     0  0
 21 19  2  0     0  0
 22 21  1  0     0  0
  3  2  1  0     0  0
  6  5  1  0     0  0
 14 13  1  0     0  0
 16 11  1  0     0  0
 22 20  2  0     0  0
M  END