
  Mrv0541 05211314572D          

 21 23  0  0  0  0            999 V2000
   -3.3564   -0.0522    0.0000 C   0  0  0  0  0  0  0  0  0  0  0  0
   -3.3564   -0.8772    0.0000 C   0  0  0  0  0  0  0  0  0  0  0  0
   -2.6419   -1.2897    0.0000 N   0  0  0  0  0  0  0  0  0  0  0  0
   -1.9274   -0.8772    0.0000 C   0  0  0  0  0  0  0  0  0  0  0  0
   -1.9274   -0.0522    0.0000 N   0  0  0  0  0  0  0  0  0  0  0  0
   -2.6419    0.3603    0.0000 C   0  0  0  0  0  0  0  0  0  0  0  0
   -1.2130   -1.2897    0.0000 C   0  0  0  0  0  0  0  0  0  0  0  0
   -1.2130   -2.1147    0.0000 C   0  0  0  0  0  0  0  0  0  0  0  0
   -0.4985   -2.5272    0.0000 C   0  0  0  0  0  0  0  0  0  0  0  0
    0.2160   -2.1147    0.0000 C   0  0  0  0  0  0  0  0  0  0  0  0
    0.2160   -1.2897    0.0000 C   0  0  0  0  0  0  0  0  0  0  0  0
   -0.4985   -0.8772    0.0000 N   0  0  0  0  0  0  0  0  0  0  0  0
    0.9304   -0.8772    0.0000 C   0  0  0  0  0  0  0  0  0  0  0  0
   -2.6419    1.1853    0.0000 N   0  0  0  0  0  0  0  0  0  0  0  0
   -1.9274    1.5978    0.0000 C   0  0  0  0  0  0  0  0  0  0  0  0
   -1.9274    2.4228    0.0000 C   0  0  0  0  0  0  0  0  0  0  0  0
   -1.2130    2.8353    0.0000 C   0  0  0  0  0  0  0  0  0  0  0  0
   -0.4985    2.4228    0.0000 N   0  0  0  0  0  0  0  0  0  0  0  0
   -0.4985    1.5978    0.0000 C   0  0  0  0  0  0  0  0  0  0  0  0
   -1.2130    1.1853    0.0000 C   0  0  0  0  0  0  0  0  0  0  0  0
   -4.0708   -1.2897    0.0000 C   0  0  0  0  0  0  0  0  0  0  0  0
  2  3  1  0  0  0  0
 10 11  1  0  0  0  0
  5  6  2  0  0  0  0
 11 12  2  0  0  0  0
 12  7  1  0  0  0  0
  6  1  1  0  0  0  0
 11 13  1  0  0  0  0
  1  2  2  0  0  0  0
  6 14  1  0  0  0  0
  4  7  1  0  0  0  0
 14 15  1  0  0  0  0
  3  4  2  0  0  0  0
 15 16  2  0  0  0  0
  7  8  2  0  0  0  0
 16 17  1  0  0  0  0
 17 18  2  0  0  0  0
  8  9  1  0  0  0  0
 18 19  1  0  0  0  0
  4  5  1  0  0  0  0
 19 20  2  0  0  0  0
 20 15  1  0  0  0  0
  9 10  2  0  0  0  0
  2 21  1  0  0  0  0
M  END