
          11280714542D 1   1.00000     0.00000     0

 32 35  0     0  0            999 V2000
    5.7000   -5.0542    0.0000 N   0  0  3  0  0  0           0  0  0
    7.1250   -5.8792    0.0000 N   0  0  3  0  0  0           0  0  0
    2.8417   -5.0542    0.0000 C   0  0  3  0  0  0           0  0  0
    2.8417   -5.8792    0.0000 C   0  0  0  0  0  0           0  0  0
    2.1292   -4.6417    0.0000 C   0  0  0  0  0  0           0  0  0
    6.4042   -4.6375    0.0000 C   0  0  0  0  0  0           0  0  0
    6.4042   -6.2917    0.0000 C   0  0  0  0  0  0           0  0  0
    5.6917   -5.8792    0.0000 C   0  0  0  0  0  0           0  0  0
    7.1250   -5.0542    0.0000 C   0  0  0  0  0  0           0  0  0
   11.4125   -5.0792    0.0000 C   0  0  0  0  0  0           0  0  0
    3.5542   -4.6417    0.0000 O   0  0  0  0  0  0           0  0  0
    9.9792   -5.8917    0.0000 C   0  0  0  0  0  0           0  0  0
   12.1292   -4.6667    0.0000 F   0  0  0  0  0  0           0  0  0
   11.4042   -5.9042    0.0000 C   0  0  0  0  0  0           0  0  0
   10.7000   -4.6625    0.0000 C   0  0  0  0  0  0           0  0  0
   10.6875   -6.3125    0.0000 C   0  0  0  0  0  0           0  0  0
    9.9792   -5.0667    0.0000 C   0  0  0  0  0  0           0  0  0
    4.9875   -4.6417    0.0000 C   0  0  0  0  0  0           0  0  0
    7.8375   -6.2917    0.0000 C   0  0  0  0  0  0           0  0  0
    4.2667   -5.0542    0.0000 C   0  0  0  0  0  0           0  0  0
    8.5500   -5.8875    0.0000 C   0  0  0  0  0  0           0  0  0
    9.2667   -6.3000    0.0000 C   0  0  0  0  0  0           0  0  0
    3.5625   -6.2875    0.0000 C   0  0  0  0  0  0           0  0  0
    2.1292   -3.8167    0.0000 C   0  0  0  0  0  0           0  0  0
    1.4167   -5.0625    0.0000 C   0  0  0  0  0  0           0  0  0
    2.1292   -6.2917    0.0000 C   0  0  0  0  0  0           0  0  0
    1.4250   -3.4042    0.0000 C   0  0  0  0  0  0           0  0  0
    0.7042   -4.6417    0.0000 C   0  0  0  0  0  0           0  0  0
    2.1292   -7.1125    0.0000 C   0  0  0  0  0  0           0  0  0
    3.5542   -7.1167    0.0000 C   0  0  0  0  0  0           0  0  0
    0.7042   -3.8167    0.0000 C   0  0  0  0  0  0           0  0  0
    2.8417   -7.5292    0.0000 C   0  0  0  0  0  0           0  0  0
  2  7  1  0     0  0
  3 11  1  0     0  0
  4  3  1  0     0  0
  5  3  1  0     0  0
  6  1  1  0     0  0
  7  8  1  0     0  0
  8  1  1  0     0  0
  9  6  1  0     0  0
 10 15  1  0     0  0
 11 20  1  0     0  0
 12 22  1  0     0  0
 13 10  1  0     0  0
 14 16  1  0     0  0
 15 17  2  0     0  0
 16 12  2  0     0  0
 17 12  1  0     0  0
 18  1  1  0     0  0
 19  2  1  0     0  0
 20 18  1  0     0  0
 21 19  1  0     0  0
 22 21  1  0     0  0
 23  4  1  0     0  0
 24  5  1  0     0  0
 25  5  2  0     0  0
 26  4  2  0     0  0
 27 24  2  0     0  0
 28 25  1  0     0  0
 29 26  1  0     0  0
 30 23  2  0     0  0
 31 28  2  0     0  0
 32 29  2  0     0  0
  9  2  1  0     0  0
 27 31  1  0     0  0
 30 32  1  0     0  0
 14 10  2  0     0  0
M  END