
          11280714452D 1   1.00000     0.00000     0

 32 35  0     0  0            999 V2000
    0.4250   -3.0917    0.0000 S   0  0  3  0  0  0           0  0  0
    2.5042   -3.0875    0.0000 C   0  0  0  0  0  0           0  0  0
    2.5042   -2.4875    0.0000 N   0  0  3  0  0  0           0  0  0
    1.9792   -3.3917    0.0000 C   0  0  0  0  0  0           0  0  0
   -0.0958   -3.3917    0.0000 N   0  0  0  0  0  0           0  0  0
    3.0250   -3.3917    0.0000 C   0  0  0  0  0  0           0  0  0
   -0.6125   -3.0917    0.0000 C   0  0  0  0  0  0           0  0  0
    1.9792   -3.9917    0.0000 C   0  0  0  0  0  0           0  0  0
    3.0292   -2.1917    0.0000 C   0  0  0  0  0  0           0  0  0
    0.9417   -3.3917    0.0000 C   0  0  0  0  0  0           0  0  0
    1.4625   -3.0917    0.0000 C   0  0  0  0  0  0           0  0  0
    2.5042   -4.2917    0.0000 O   0  0  0  0  0  0           0  0  0
    3.0250   -3.9917    0.0000 C   0  0  3  0  0  0           0  0  0
   -0.0833   -2.3000    0.0000 O   0  0  0  0  0  0           0  0  0
    0.7917   -2.2667    0.0000 O   0  0  0  0  0  0           0  0  0
   -1.1333   -3.3917    0.0000 N   0  0  0  0  0  0           0  0  0
    1.9917   -2.1875    0.0000 C   0  0  0  0  0  0           0  0  0
    3.0292   -1.5917    0.0000 C   0  0  0  0  0  0           0  0  0
   -0.6083   -2.4917    0.0000 O   0  0  0  0  0  0           0  0  0
    3.5417   -2.5000    0.0000 O   0  0  0  0  0  0           0  0  0
    1.4625   -4.2917    0.0000 C   0  0  0  0  0  0           0  0  0
    0.9417   -3.9917    0.0000 C   0  0  0  0  0  0           0  0  0
    1.9917   -1.5875    0.0000 C   0  0  0  0  0  0           0  0  0
    2.5167   -1.2917    0.0000 C   0  0  0  0  0  0           0  0  0
   -1.6500   -3.0917    0.0000 C   0  0  0  0  0  0           0  0  0
    3.6250   -3.9917    0.0000 C   0  0  0  0  0  0           0  0  0
    3.3167   -4.5042    0.0000 C   0  0  0  0  0  0           0  0  0
   -1.6583   -2.4917    0.0000 C   0  0  0  0  0  0           0  0  0
   -2.1750   -3.3917    0.0000 C   0  0  0  0  0  0           0  0  0
   -2.6958   -3.0917    0.0000 C   0  0  0  0  0  0           0  0  0
   -2.1708   -2.1917    0.0000 C   0  0  0  0  0  0           0  0  0
   -2.6958   -2.4917    0.0000 C   0  0  0  0  0  0           0  0  0
  2  4  1  0     0  0
  3  2  1  0     0  0
  4 11  2  0     0  0
  5  1  1  0     0  0
  6  2  2  0     0  0
  7  5  1  0     0  0
  8 21  2  0     0  0
  9  3  1  0     0  0
 10  1  1  0     0  0
 11 10  1  0     0  0
 12  8  1  0     0  0
 13 12  1  0     0  0
 14  1  2  0     0  0
 15  1  2  0     0  0
 16  7  1  0     0  0
 17  3  1  0     0  0
 18  9  1  0     0  0
 19  7  2  0     0  0
 20  9  2  0     0  0
 21 22  1  0     0  0
 22 10  2  0     0  0
 23 17  2  0     0  0
 24 23  1  0     0  0
 25 16  1  0     0  0
 26 13  1  0     0  0
 27 13  1  0     0  0
 28 25  1  0     0  0
 29 25  2  0     0  0
 30 29  1  0     0  0
 31 28  2  0     0  0
 32 30  2  0     0  0
  4  8  1  0     0  0
 13  6  1  0     0  0
 31 32  1  0     0  0
 18 24  2  0     0  0
M  END