
  SciTegic01061111512D

 27 30  0  0  0  0            999 V2000
   -3.7878   -1.3360    0.0000 N   0  0
   -3.0713   -0.9227    0.0000 C   0  0
   -3.0742   -0.0922    0.0000 N   0  0
   -3.7896    0.3170    0.0000 C   0  0
   -4.5026   -0.9232    0.0000 C   0  0
   -4.5013   -0.0942    0.0000 C   0  0
   -5.2893    0.1631    0.0000 N   0  0
   -5.7776   -0.5068    0.0000 C   0  0
   -5.2913   -1.1781    0.0000 C   0  0
   -5.5431    0.9481    0.0000 C   0  0
   -3.7914    1.1420    0.0000 O   0  0
   -3.0778    1.5560    0.0000 C   0  0
   -2.3656    1.1421    0.0000 C   0  0
   -1.6525    1.5555    0.0000 C   0  0
   -1.6538    2.3814    0.0000 C   0  0
   -2.3742    2.7922    0.0000 C   0  0
   -3.0844    2.3764    0.0000 C   0  0
   -0.9408    2.7964    0.0000 N   0  0
   -0.2249    2.3864    0.0000 C   0  0
    0.4881    2.8015    0.0000 N   0  0
   -0.2220    1.5615    0.0000 O   0  0
    1.2040    2.3915    0.0000 C   0  0
    1.2043    1.5656    0.0000 C   0  0
    1.9194    1.1557    0.0000 C   0  0
    2.6334    1.5708    0.0000 C   0  0
    2.6278    2.4000    0.0000 C   0  0
    1.9122    2.8062    0.0000 C   0  0
 12 13  2  0
  2  3  1  0
 13 14  1  0
 14 15  2  0
  3  4  2  0
 15 16  1  0
  6  7  1  0
 16 17  2  0
 17 12  1  0
  7  8  1  0
 15 18  1  0
  8  9  2  0
 18 19  1  0
  9  5  1  0
 19 20  1  0
  4  6  1  0
 19 21  2  0
  7 10  1  0
 20 22  1  0
  5  6  2  0
 22 23  2  0
  4 11  1  0
 23 24  1  0
  1  2  2  0
 24 25  2  0
 11 12  1  0
 25 26  1  0
  5  1  1  0
 26 27  2  0
 27 22  1  0
M  END