
  SciTegic12231509382D

 23 25  0  0  0  0            999 V2000
    2.2393    0.8239    0.0000 N   0  0
    2.9538    1.2364    0.0000 S   0  0
    3.3663    0.5219    0.0000 O   0  0
    2.5413    1.9509    0.0000 O   0  0
    3.6682    1.6489    0.0000 C   0  0
    3.6682    2.4739    0.0000 C   0  0
    4.3827    2.8864    0.0000 C   0  0
    5.0972    2.4739    0.0000 C   0  0
    5.0972    1.6489    0.0000 C   0  0
    5.8116    1.2364    0.0000 N   0  0
    5.8116    0.4114    0.0000 C   0  0
    6.4791   -0.0735    0.0000 C   0  0
    6.2241   -0.8581    0.0000 C   0  0
    5.3991   -0.8581    0.0000 N   0  0
    5.1442   -0.0735    0.0000 N   0  0
    6.7091   -1.5256    0.0000 C   0  0
    7.5295   -1.4393    0.0000 C   0  0
    8.0145   -2.1068    0.0000 C   0  0
    7.6789   -2.8605    0.0000 C   0  0
    8.1638   -3.5279    0.0000 F   0  0
    6.8584   -2.9467    0.0000 C   0  0
    6.3735   -2.2793    0.0000 C   0  0
    4.3827    1.2364    0.0000 C   0  0
  1  2  1  0
  2  3  2  0
  2  4  2  0
  2  5  1  0
  5  6  2  0
  6  7  1  0
  7  8  2  0
  8  9  1  0
  9 10  1  0
 10 11  1  0
 11 12  2  0
 12 13  1  0
 13 14  2  0
 14 15  1  0
 11 15  1  0
 13 16  1  0
 16 17  2  0
 17 18  1  0
 18 19  2  0
 19 20  1  0
 19 21  1  0
 21 22  2  0
 16 22  1  0
  9 23  2  0
  5 23  1  0
M  END