
  SciTegic01061111512D

 28 31  0  0  0  0            999 V2000
    1.5670   -4.1485    0.0000 C   0  0
   -3.4253   -7.8819    0.0000 N   0  0
   -2.7088   -7.4685    0.0000 C   0  0
   -2.7117   -6.6380    0.0000 N   0  0
   -3.4271   -6.2289    0.0000 C   0  0
   -3.4295   -5.4039    0.0000 O   0  0
   -2.7163   -4.9892    0.0000 C   0  0
   -4.1401   -7.4690    0.0000 C   0  0
   -4.1435   -6.6401    0.0000 C   0  0
   -4.9328   -6.3871    0.0000 N   0  0
   -5.4174   -7.0597    0.0000 C   0  0
   -4.9274   -7.7283    0.0000 C   0  0
   -5.1909   -5.6035    0.0000 C   0  0
   -2.0027   -5.4020    0.0000 C   0  0
   -1.2900   -4.9881    0.0000 C   0  0
   -1.2920   -4.1622    0.0000 C   0  0
   -2.0127   -3.7520    0.0000 C   0  0
   -2.7225   -4.1683    0.0000 C   0  0
   -2.0181   -2.9270    0.0000 Cl  0  0
   -0.5793   -3.7466    0.0000 N   0  0
    0.1369   -4.1560    0.0000 C   0  0
    0.8496   -3.7404    0.0000 N   0  0
    0.1405   -4.9810    0.0000 O   0  0
    1.5691   -4.9722    0.0000 C   0  0
    2.2857   -5.3803    0.0000 C   0  0
    2.9988   -4.9630    0.0000 N   0  0
    2.9908   -4.1334    0.0000 C   0  0
    2.2737   -3.7291    0.0000 C   0  0
  7 14  2  0
  6  7  1  0
 14 15  1  0
  8  9  2  0
 15 16  2  0
  3  4  1  0
 16 17  1  0
 17 18  2  0
 18  7  1  0
  4  5  2  0
 17 19  1  0
  5  9  1  0
 16 20  1  0
  2  3  2  0
 20 21  1  0
  9 10  1  0
 21 22  1  0
 10 11  1  0
 21 23  2  0
 22  1  1  0
 11 12  2  0
  1 24  2  0
 12  8  1  0
 24 25  1  0
  5  6  1  0
 25 26  2  0
 10 13  1  0
 26 27  1  0
  8  2  1  0
 27 28  2  0
 28  1  1  0
M  END