
  SciTegic06281210282D

 25 28  0  0  0  0            999 V2000
    4.7232   -3.7736    0.0000 S   0  0
    4.0494   -4.2604    0.0000 C   0  0
    4.3067   -5.0481    0.0000 C   0  0
    5.1355   -5.0486    0.0000 C   0  0
    5.3923   -4.2601    0.0000 C   0  0
    3.3280   -3.8513    0.0000 N   0  0
    3.3235   -3.0256    0.0000 C   0  0
    2.6102   -2.6189    0.0000 C   0  0
    1.8968   -3.0334    0.0000 O   0  0
    1.9013   -3.8590    0.0000 C   0  0
    2.6191   -4.2702    0.0000 C   0  0
    6.1724   -4.0042    0.0000 C   0  0
    6.8394   -4.4892    0.0000 C   0  0
    7.5068   -4.0050    0.0000 C   0  0
    7.2524   -3.2203    0.0000 N   0  0
    6.4277   -3.2200    0.0000 N   0  0
    5.5440   -5.7617    0.0000 C   0  0
    5.1278   -6.4750    0.0000 C   0  0
    5.5374   -7.1900    0.0000 C   0  0
    6.3629   -7.1929    0.0000 C   0  0
    6.7772   -6.4748    0.0000 C   0  0
    6.3652   -5.7628    0.0000 C   0  0
    6.7741   -7.9076    0.0000 Cl  0  0
    3.8224   -5.7173    0.0000 C   0  0
    3.3380   -6.3848    0.0000 N   0  0
  6  7  1  0
  2  3  2  0
  1  2  1  0
  3  4  1  0
 13 14  2  0
 14 15  1  0
 15 16  1  0
 16 12  2  0
  5 12  1  0
  4  5  2  0
  5  1  1  0
 17 18  2  0
  6 11  1  0
 18 19  1  0
  7  8  1  0
 19 20  2  0
  8  9  1  0
 20 21  1  0
  9 10  1  0
 21 22  2  0
 22 17  1  0
  4 17  1  0
 10 11  1  0
 20 23  1  0
  2  6  1  0
 12 13  1  0
 24 25  3  0
  3 24  1  0
M  END