
  SciTegic01061111512D

 32 35  0  0  0  0            999 V2000
   13.9253   -9.1152    0.0000 C   0  0
    8.9331  -12.8485    0.0000 N   0  0
    9.6495  -12.4352    0.0000 C   0  0
    9.6466  -11.6047    0.0000 N   0  0
    8.9313  -11.1955    0.0000 C   0  0
    8.9288  -10.3705    0.0000 O   0  0
    9.6420   -9.9559    0.0000 C   0  0
    8.2182  -12.4357    0.0000 C   0  0
    8.2149  -11.6068    0.0000 C   0  0
    7.4255  -11.3538    0.0000 N   0  0
    6.9409  -12.0264    0.0000 C   0  0
    7.4310  -12.6949    0.0000 C   0  0
    7.1674  -10.5702    0.0000 C   0  0
   10.3556  -10.3687    0.0000 C   0  0
   11.0683   -9.9547    0.0000 C   0  0
   11.0663   -9.1288    0.0000 C   0  0
   10.3456   -8.7187    0.0000 C   0  0
    9.6358   -9.1350    0.0000 C   0  0
   10.3402   -7.8937    0.0000 Cl  0  0
   11.7790   -8.7133    0.0000 N   0  0
   12.4953   -9.1227    0.0000 C   0  0
   13.2079   -8.7071    0.0000 N   0  0
   12.4988   -9.9477    0.0000 O   0  0
   13.9275   -9.9389    0.0000 C   0  0
   14.6440  -10.3469    0.0000 C   0  0
   15.3571   -9.9297    0.0000 N   0  0
   15.3492   -9.1001    0.0000 C   0  0
   14.6321   -8.6958    0.0000 C   0  0
   14.6489  -11.1719    0.0000 C   0  0
   13.9368  -11.5886    0.0000 F   0  0
   15.3658  -11.5802    0.0000 F   0  0
   14.6417  -11.9958    0.0000 F   0  0
 15 16  2  0
  3  4  1  0
 16 17  1  0
 17 18  2  0
 18  7  1  0
  4  5  2  0
 17 19  1  0
  5  9  1  0
 16 20  1  0
  2  3  2  0
 20 21  1  0
  9 10  1  0
 21 22  1  0
 10 11  1  0
 21 23  2  0
 22  1  1  0
 11 12  2  0
  1 24  2  0
 12  8  1  0
 24 25  1  0
  5  6  1  0
 25 26  2  0
 10 13  1  0
 26 27  1  0
  8  2  1  0
 27 28  2  0
 28  1  1  0
  7 14  2  0
 25 29  1  0
  6  7  1  0
 29 30  1  0
 14 15  1  0
 29 31  1  0
  8  9  2  0
 29 32  1  0
M  END