
  SciTegic11201309402D

 19 22  0  0  1  0            999 V2000
    4.7250   -3.2667    0.0000 N   0  0
    4.0125   -2.0292    0.0000 C   0  0
    4.0125   -2.8542    0.0000 C   0  0
    4.7250   -1.6167    0.0000 C   0  0  1  0  0  0
    5.4417   -2.0292    0.0000 C   0  0  1  0  0  0
    5.4417   -2.8542    0.0000 C   0  0
    5.4375   -0.3750    0.0000 N   0  0
    4.7250   -0.7875    0.0000 C   0  0
    4.5500   -4.0667    0.0000 C   0  0
    3.3917   -3.4125    0.0000 C   0  0
    6.1542   -1.6167    0.0000 C   0  0
    3.7292   -4.1542    0.0000 C   0  0
    6.1542   -0.7875    0.0000 C   0  0
    3.3000   -1.6167    0.0000 C   0  0
    5.4292    0.4500    0.0000 C   0  0
    2.5792   -2.0292    0.0000 C   0  0
    2.6167   -3.1625    0.0000 C   0  0
    6.3080   -2.5287    0.0000 H   0  0
    3.8587   -1.1172    0.0000 H   0  0
  2  3  1  0
  3  1  1  0
  4  5  1  0
  5  6  1  0
  6  1  1  0
  7 13  1  0
  4  8  1  0
  9  1  1  0
 10  3  2  0
  5 11  1  0
 12  9  1  0
 13 11  1  0
 14  2  2  0
 15  7  1  0
 16 17  2  0
 17 10  1  0
 10 12  1  0
  2  4  1  0
  7  8  1  0
 14 16  1  0
  5 18  1  1
  4 19  1  1
M  END