
  SciTegic01091216402D

 23 26  0  0  0  0            999 V2000
    0.7652  -25.6083    0.0000 N   0  0
    0.7641  -26.4357    0.0000 C   0  0
    1.4789  -26.8485    0.0000 N   0  0
    1.4771  -25.1955    0.0000 C   0  0
    2.1925  -25.6047    0.0000 C   0  0
    2.1973  -26.4311    0.0000 C   0  0
    2.9848  -26.6819    0.0000 C   0  0
    3.4667  -26.0104    0.0000 C   0  0
    2.9770  -25.3447    0.0000 S   0  0
    1.4746  -24.3705    0.0000 O   0  0
    0.7589  -23.9602    0.0000 C   0  0
    0.7565  -23.1352    0.0000 C   0  0
    0.0408  -22.7248    0.0000 O   0  0
    1.4697  -22.7205    0.0000 O   0  0
    4.2897  -26.0051    0.0000 C   0  0
    4.7058  -26.7187    0.0000 C   0  0
    5.5300  -26.7142    0.0000 C   0  0
    4.6952  -25.2905    0.0000 C   0  0
    5.5226  -25.2833    0.0000 C   0  0
    5.9370  -25.9968    0.0000 C   0  0
    6.7437  -25.8232    0.0000 N   0  0
    6.8278  -25.0023    0.0000 N   0  0
    6.0731  -24.6688    0.0000 C   0  0
 10 11  1  0
 11 12  1  0
  2  3  1  0
 12 13  2  0
  3  6  2  0
 12 14  1  0
  1  2  2  0
  5  4  2  0
 15 16  2  0
  6  7  1  0
 16 17  1  0
 17 20  2  0
  7  8  2  0
 19 18  2  0
 18 15  1  0
  8 15  1  0
 19 20  1  0
  8  9  1  0
  9  5  1  0
  4  1  1  0
  4 10  1  0
  5  6  1  0
 20 21  1  0
 21 22  1  0
 22 23  2  0
 23 19  1  0
M  END