
  Mrv0541 04051115152D          

 37 40  0  0  0  0            999 V2000
   -1.0698   -0.6518    0.0000 C   0  0  0  0  0  0  0  0  0  0  0  0
   -1.0698   -1.4768    0.0000 C   0  0  0  0  0  0  0  0  0  0  0  0
   -1.7843   -1.8893    0.0000 C   0  0  0  0  0  0  0  0  0  0  0  0
   -1.7843    0.5857    0.0000 C   0  0  0  0  0  0  0  0  0  0  0  0
   -0.3553    0.5857    0.0000 N   0  0  0  0  0  0  0  0  0  0  0  0
   -0.3553   -0.2393    0.0000 C   0  0  0  0  0  0  0  0  0  0  0  0
   -2.4987    0.9982    0.0000 C   0  0  0  0  0  0  0  0  0  0  0  0
   -1.0698    1.8232    0.0000 C   0  0  0  0  0  0  0  0  0  0  0  0
   -3.2132    0.5857    0.0000 C   0  0  0  0  0  0  0  0  0  0  0  0
   -2.4987   -1.4768    0.0000 C   0  0  0  0  0  0  0  0  0  0  0  0
   -2.4987   -0.6518    0.0000 C   0  0  0  0  0  0  0  0  0  0  0  0
   -1.7843   -0.2393    0.0000 C   0  0  0  0  0  0  0  0  0  0  0  0
   -1.0698    0.9982    0.0000 C   0  0  0  0  0  0  0  0  0  0  0  0
   -3.2132   -1.8893    0.0000 Br  0  0  0  0  0  0  0  0  0  0  0  0
    0.3591    0.9982    0.0000 C   0  0  0  0  0  0  0  0  0  0  0  0
   -0.3553    2.2357    0.0000 O   0  0  0  0  0  0  0  0  0  0  0  0
    0.3591    1.8232    0.0000 C   0  0  0  0  0  0  0  0  0  0  0  0
   -1.7843    2.2357    0.0000 O   0  0  0  0  0  0  0  0  0  0  0  0
    0.3591   -0.6518    0.0000 O   0  0  0  0  0  0  0  0  0  0  0  0
    1.0736    0.5857    0.0000 C   0  0  0  0  0  0  0  0  0  0  0  0
   -3.9277    0.9982    0.0000 C   0  0  0  0  0  0  0  0  0  0  0  0
   -3.9277    1.8232    0.0000 C   0  0  0  0  0  0  0  0  0  0  0  0
   -3.2132    2.2357    0.0000 C   0  0  0  0  0  0  0  0  0  0  0  0
   -2.4987    1.8232    0.0000 C   0  0  0  0  0  0  0  0  0  0  0  0
    1.0736   -0.2393    0.0000 C   0  0  0  0  0  0  0  0  0  0  0  0
    1.7881   -0.6518    0.0000 C   0  0  0  0  0  0  0  0  0  0  0  0
    2.5025   -0.2393    0.0000 C   0  0  0  0  0  0  0  0  0  0  0  0
    2.5025    0.5857    0.0000 C   0  0  0  0  0  0  0  0  0  0  0  0
    1.7881    0.9982    0.0000 C   0  0  0  0  0  0  0  0  0  0  0  0
    3.2170   -0.6518    0.0000 N   0  0  0  0  0  0  0  0  0  0  0  0
    3.9315   -0.2393    0.0000 C   0  0  0  0  0  0  0  0  0  0  0  0
    4.6460   -0.6518    0.0000 C   0  0  0  0  0  0  0  0  0  0  0  0
    5.3604   -0.2393    0.0000 C   0  0  0  0  0  0  0  0  0  0  0  0
    6.0749   -0.6518    0.0000 C   0  0  0  0  0  0  0  0  0  0  0  0
    3.9315    0.5857    0.0000 O   0  0  0  0  0  0  0  0  0  0  0  0
    6.7894   -0.2393    0.0000 O   0  0  0  0  0  0  0  0  0  0  0  0
    6.0749   -1.4768    0.0000 O   0  0  0  0  0  0  0  0  0  0  0  0
  6  1  1  0  0  0  0
 12  1  2  0  0  0  0
  1  2  1  0  0  0  0
  2  3  2  0  0  0  0
 10  3  1  0  0  0  0
  4  7  1  0  0  0  0
  4 13  2  0  0  0  0
  4 12  1  0  0  0  0
 13  5  1  0  0  0  0
 15  5  1  0  0  0  0
  6  5  1  0  0  0  0
  6 19  2  0  0  0  0
  7  9  2  0  0  0  0
  7 24  1  0  0  0  0
  8 18  2  0  0  0  0
  8 16  1  0  0  0  0
 13  8  1  0  0  0  0
  9 21  1  0  0  0  0
 10 11  2  0  0  0  0
 14 10  1  0  0  0  0
 11 12  1  0  0  0  0
 15 20  1  0  0  0  0
 17 16  1  0  0  0  0
 20 29  2  0  0  0  0
 20 25  1  0  0  0  0
 21 22  2  0  0  0  0
 22 23  1  0  0  0  0
 23 24  2  0  0  0  0
 25 26  2  0  0  0  0
 26 27  1  0  0  0  0
 27 28  2  0  0  0  0
 27 30  1  0  0  0  0
 28 29  1  0  0  0  0
 31 30  1  0  0  0  0
 31 32  1  0  0  0  0
 31 35  2  0  0  0  0
 32 33  1  0  0  0  0
 33 34  1  0  0  0  0
 34 36  2  0  0  0  0
 34 37  1  0  0  0  0
M  END