
  SciTegic          2D

 31 34  0  0  0  0            999 V2000
    4.7812    3.5854    0.0000 C   0  0
    4.0668    3.1729    0.0000 C   0  0
    4.0668    2.3479    0.0000 O   0  0
    3.3523    1.9354    0.0000 C   0  0
    3.3523    1.1104    0.0000 C   0  0
    2.6378    0.6979    0.0000 C   0  0
    1.9233    1.1104    0.0000 C   0  0
    1.1387    0.8555    0.0000 C   0  0
    0.6538    1.5229    0.0000 C   0  0
    1.1387    2.1904    0.0000 N   0  0
    1.9233    1.9354    0.0000 N   0  0
    2.6378    2.3479    0.0000 N   0  0
    0.8838    0.0709    0.0000 C   0  0
    1.4358   -0.5422    0.0000 C   0  0
    1.1809   -1.3268    0.0000 C   0  0
    0.3739   -1.4984    0.0000 N   0  0
   -0.1781   -0.8853    0.0000 C   0  0
   -0.9851   -1.0568    0.0000 N   0  0
   -1.5371   -0.4437    0.0000 C   0  0
   -2.3441   -0.6152    0.0000 C   0  0
   -2.8961   -0.0021    0.0000 C   0  0
   -3.7031   -0.1737    0.0000 O   0  0
   -3.9580   -0.9583    0.0000 C   0  0
   -2.6412    0.7825    0.0000 C   0  0
   -1.8342    0.9540    0.0000 C   0  0
   -1.2822    0.3409    0.0000 C   0  0
   -1.5793    1.7386    0.0000 C   0  0
   -1.3243    2.5233    0.0000 F   0  0
   -0.7947    1.4837    0.0000 F   0  0
   -2.3639    1.9936    0.0000 F   0  0
    0.0768   -0.1006    0.0000 N   0  0
  1  2  1  0
  2  3  1  0
  3  4  1  0
  4  5  1  0
  5  6  2  0
  6  7  1  0
  7  8  2  0
  8  9  1  0
  9 10  2  0
 10 11  1  0
  7 11  1  0
 11 12  1  0
  4 12  2  0
  8 13  1  0
 13 14  2  0
 14 15  1  0
 15 16  2  0
 16 17  1  0
 17 18  1  0
 18 19  1  0
 19 20  2  0
 20 21  1  0
 21 22  1  0
 22 23  1  0
 21 24  2  0
 24 25  1  0
 25 26  2  0
 19 26  1  0
 25 27  1  0
 27 28  1  0
 27 29  1  0
 27 30  1  0
 17 31  2  0
 13 31  1  0
M  END