
  CDK    9/16/09,10:2

 28 31  0  0  0  0  0  0  0  0999 V2000
    5.4424    1.0482    0.0000 C   0  0  0  0  0  0  0  0  0  0  0  0
    4.6184    1.0535    0.0000 C   0  0  0  0  0  0  0  0  0  0  0  0
    4.2037    0.3438    0.0000 C   0  0  0  0  0  0  0  0  0  0  0  0
    4.6117   -0.3718    0.0000 C   0  0  0  0  0  0  0  0  0  0  0  0
    5.4389   -0.3731    0.0000 C   0  0  0  0  0  0  0  0  0  0  0  0
    5.8499    0.3373    0.0000 C   0  0  0  0  0  0  0  0  0  0  0  0
    3.3780    0.3481    0.0000 C   0  0  0  0  0  0  0  0  0  0  0  0
    2.9613   -0.3647    0.0000 S   0  0  0  0  0  0  0  0  0  0  0  0
    3.3704   -1.0821    0.0000 C   0  0  0  0  0  0  0  0  0  0  0  0
    3.0328   -1.8347    0.0000 N   0  0  0  0  0  0  0  0  0  0  0  0
    3.6435   -2.3904    0.0000 N   0  0  0  0  0  0  0  0  0  0  0  0
    4.3609   -1.9814    0.0000 C   0  0  0  0  0  0  0  0  0  0  0  0
    4.1933   -1.1728    0.0000 O   0  0  0  0  0  0  0  0  0  0  0  0
    5.1113   -2.3189    0.0000 C   0  0  0  0  0  0  0  0  0  0  0  0
    5.1920   -3.1418    0.0000 C   0  0  0  0  0  0  0  0  0  0  0  0
    5.9438   -3.4816    0.0000 C   0  0  0  0  0  0  0  0  0  0  0  0
    5.7783   -1.8379    0.0000 C   0  0  0  0  0  0  0  0  0  0  0  0
    6.5302   -2.1739    0.0000 C   0  0  0  0  0  0  0  0  0  0  0  0
    6.6117   -2.9987    0.0000 C   0  0  0  0  0  0  0  0  0  0  0  0
    7.4213   -3.1760    0.0000 N   0  0  0  0  0  0  0  0  0  0  0  0
    7.8402   -2.4609    0.0000 C   0  0  0  0  0  0  0  0  0  0  0  0
    7.2894   -1.8416    0.0000 S   0  0  0  0  0  0  0  0  0  0  0  0
    5.8587    1.7614    0.0000 C   0  0  0  0  0  0  0  0  0  0  0  0
    6.2639    2.4814    0.0000 F   0  0  0  0  0  0  0  0  0  0  0  0
    6.5751    1.3507    0.0000 F   0  0  0  0  0  0  0  0  0  0  0  0
    5.1421    2.1715    0.0000 F   0  0  0  0  0  0  0  0  0  0  0  0
    6.6757    0.3355    0.0000 O   0  0  0  0  0  0  0  0  0  0  0  0
    7.0870   -0.3804    0.0000 C   0  0  0  0  0  0  0  0  0  0  0  0
  1  2  2  0  0  0  0 
  3  7  1  0  0  0  0 
 14 15  2  0  0  0  0 
  3  4  2  0  0  0  0 
 15 16  1  0  0  0  0 
 16 19  2  0  0  0  0 
  7  8  1  0  0  0  0 
 18 17  2  0  0  0  0 
 17 14  1  0  0  0  0 
 12 14  1  0  0  0  0 
 18 19  1  0  0  0  0 
  8  9  1  0  0  0  0 
  9 10  2  0  0  0  0 
  4  5  1  0  0  0  0 
  2  3  1  0  0  0  0 
 19 20  1  0  0  0  0 
 20 21  2  0  0  0  0 
 21 22  1  0  0  0  0 
 22 18  1  0  0  0  0 
  5  6  2  0  0  0  0 
  1 23  1  0  0  0  0 
  6  1  1  0  0  0  0 
 23 24  1  0  0  0  0 
 10 11  1  0  0  0  0 
 23 25  1  0  0  0  0 
 11 12  2  0  0  0  0 
 23 26  1  0  0  0  0 
 12 13  1  0  0  0  0 
  6 27  1  0  0  0  0 
 13  9  1  0  0  0  0 
 27 28  1  0  0  0  0 
M  END