
          11280714552D 1   1.00000     0.00000     0

 38 41  0     0  0            999 V2000
    7.1417   -6.7500    0.0000 N   0  0  3  0  0  0           0  0  0
    7.8542   -7.1667    0.0000 C   0  0  0  0  0  0           0  0  0
    8.5667   -6.7542    0.0000 C   0  0  0  0  0  0           0  0  0
    9.2875   -7.1667    0.0000 C   0  0  0  0  0  0           0  0  0
   10.0000   -6.7625    0.0000 C   0  0  0  0  0  0           0  0  0
    5.7167   -5.9292    0.0000 N   0  0  3  0  0  0           0  0  0
    2.8667   -5.9292    0.0000 C   0  0  3  0  0  0           0  0  0
    2.8667   -6.7542    0.0000 C   0  0  0  0  0  0           0  0  0
    2.1500   -5.5167    0.0000 C   0  0  0  0  0  0           0  0  0
   10.0000   -5.9417    0.0000 C   0  0  0  0  0  0           0  0  0
    6.4250   -7.1625    0.0000 C   0  0  0  0  0  0           0  0  0
    7.1417   -5.9250    0.0000 C   0  0  0  0  0  0           0  0  0
    7.8542   -7.9917    0.0000 O   0  0  0  0  0  0           0  0  0
   10.7042   -7.1792    0.0000 C   0  0  0  0  0  0           0  0  0
    3.5792   -7.1542    0.0000 C   0  0  0  0  0  0           0  0  0
    2.1542   -4.6917    0.0000 C   0  0  0  0  0  0           0  0  0
    1.4417   -5.9292    0.0000 C   0  0  0  0  0  0           0  0  0
    2.1542   -7.1625    0.0000 C   0  0  0  0  0  0           0  0  0
   10.7167   -5.5292    0.0000 C   0  0  0  0  0  0           0  0  0
    6.4292   -5.5042    0.0000 C   0  0  0  0  0  0           0  0  0
    5.7167   -6.7500    0.0000 C   0  0  0  0  0  0           0  0  0
   11.4250   -6.7750    0.0000 C   0  0  0  0  0  0           0  0  0
    2.8625   -8.4000    0.0000 C   0  0  0  0  0  0           0  0  0
    0.7292   -4.6917    0.0000 C   0  0  0  0  0  0           0  0  0
    3.5792   -5.5167    0.0000 O   0  0  0  0  0  0           0  0  0
   11.4292   -5.9500    0.0000 C   0  0  0  0  0  0           0  0  0
    2.1500   -7.9792    0.0000 C   0  0  0  0  0  0           0  0  0
    0.7250   -5.5167    0.0000 C   0  0  0  0  0  0           0  0  0
    3.5792   -7.9875    0.0000 C   0  0  0  0  0  0           0  0  0
    1.4417   -4.2792    0.0000 C   0  0  0  0  0  0           0  0  0
    2.8542   -9.2250    0.0000 F   0  0  0  0  0  0           0  0  0
    0.0125   -4.2750    0.0000 F   0  0  0  0  0  0           0  0  0
    9.2792   -5.5292    0.0000 O   0  0  0  0  0  0           0  0  0
    5.0042   -5.5167    0.0000 C   0  0  0  0  0  0           0  0  0
    4.2917   -5.9292    0.0000 C   0  0  0  0  0  0           0  0  0
   12.1292   -7.1917    0.0000 O   0  0  0  0  0  0           0  0  0
    9.2875   -4.7042    0.0000 C   0  0  0  0  0  0           0  0  0
   12.1292   -8.0167    0.0000 C   0  0  0  0  0  0           0  0  0
  2  1  1  0     0  0
  3  2  1  0     0  0
  4  3  2  0     0  0
  5  4  1  0     0  0
  6 20  1  0     0  0
  7 25  1  0     0  0
  8  7  1  0     0  0
  9  7  1  0     0  0
 10  5  1  0     0  0
 11  1  1  0     0  0
 12  1  1  0     0  0
 13  2  2  0     0  0
 14  5  2  0     0  0
 15  8  1  0     0  0
 16  9  1  0     0  0
 17  9  2  0     0  0
 18  8  2  0     0  0
 19 10  2  0     0  0
 20 12  1  0     0  0
 21 11  1  0     0  0
 22 14  1  0     0  0
 23 27  2  0     0  0
 24 28  2  0     0  0
 25 35  1  0     0  0
 26 22  2  0     0  0
 27 18  1  0     0  0
 28 17  1  0     0  0
 29 15  2  0     0  0
 30 16  2  0     0  0
 31 23  1  0     0  0
 32 24  1  0     0  0
 33 10  1  0     0  0
 34  6  1  0     0  0
 35 34  1  0     0  0
 36 22  1  0     0  0
 37 33  1  0     0  0
 38 36  1  0     0  0
  6 21  1  0     0  0
 19 26  1  0     0  0
 30 24  1  0     0  0
 29 23  1  0     0  0
M  END