
  SciTegic02271217242D

 26 29  0  0  0  0            999 V2000
   -2.7836   -1.4819    0.0000 N   0  0
   -2.0672   -1.0685    0.0000 C   0  0
   -2.0700   -0.2380    0.0000 N   0  0
   -2.7854    0.1711    0.0000 C   0  0
   -3.4984   -1.0690    0.0000 C   0  0
   -3.4972   -0.2401    0.0000 C   0  0
   -4.2852    0.0173    0.0000 N   0  0
   -4.7734   -0.6526    0.0000 C   0  0
   -4.2872   -1.3239    0.0000 C   0  0
   -2.7872    0.9961    0.0000 N   0  0
   -2.0737    1.4102    0.0000 C   0  0
   -1.3614    0.9963    0.0000 C   0  0
   -0.6483    1.4097    0.0000 C   0  0
   -0.6497    2.2356    0.0000 C   0  0
   -1.3701    2.6463    0.0000 C   0  0
   -2.0802    2.2306    0.0000 C   0  0
    0.0669    0.9984    0.0000 Cl  0  0
    0.0633    2.6506    0.0000 O   0  0
   -4.5389    0.8023    0.0000 C   0  0
    0.7793    2.2406    0.0000 C   0  0
    0.7793    1.4156    0.0000 C   0  0
    1.4944    1.0057    0.0000 C   0  0
    2.2084    1.4208    0.0000 C   0  0
    2.2028    2.2500    0.0000 C   0  0
    1.4871    2.6562    0.0000 C   0  0
    2.9143    2.6675    0.0000 Cl  0  0
  5  1  1  0
 12 13  1  0
  2  3  1  0
 13 14  2  0
 14 15  1  0
  3  4  2  0
 15 16  2  0
 16 11  1  0
  6  7  1  0
 13 17  1  0
  7  8  1  0
 14 18  1  0
  8  9  2  0
  7 19  1  0
  9  5  1  0
 18 20  1  0
  4  6  1  0
 20 21  2  0
  4 10  1  0
 21 22  1  0
  5  6  2  0
 22 23  2  0
 10 11  1  0
 23 24  1  0
  1  2  2  0
 24 25  2  0
 25 20  1  0
 11 12  2  0
 24 26  1  0
M  END