
  SciTegic12231509382D

 33 36  0  0  0  0            999 V2000
   -2.6111   -7.4940    0.0000 N   0  0
   -0.0083   -6.0019    0.0000 N   0  0
    2.5977   -1.5021    0.0000 C   0  0
    3.8983   -0.7531    0.0000 C   0  0
    1.2990   -0.7500    0.0000 C   0  0
   -5.2110   -7.4815    0.0000 C   0  0
   -6.5146   -8.2252    0.0000 C   0  0
    1.2990    0.7500    0.0000 C   0  0
    0.0000   -1.5000    0.0000 C   0  0
    3.9029    0.7470    0.0000 C   0  0
    5.1951   -1.5070    0.0000 C   0  0
   -0.0130   -7.5019    0.0000 C   0  0
   -1.3143   -8.2480    0.0000 C   0  0
   -1.3051   -5.2480    0.0000 C   0  0
   -2.6065   -5.9940    0.0000 C   0  0
    6.5010    0.7390    0.0000 C   0  0
   -1.2990    0.7500    0.0000 C   0  0
   -3.9147   -8.2377    0.0000 C   0  0
    2.5952   -3.0030    0.0000 O   0  0
    5.2043    1.4930    0.0000 C   0  0
    0.0000    1.5000    0.0000 C   0  0
    6.4964   -0.7610    0.0000 C   0  0
   -1.2990   -0.7500    0.0000 C   0  0
   -7.8110   -7.4690    0.0000 C   0  0
   -2.3383    1.3500    0.0000 F   0  0
    7.5421    1.3358    0.0000 F   0  0
    1.2922   -5.2528    0.0000 C   0  0
    1.2947   -3.7520    0.0000 C   0  0
   -9.1150   -8.2104    0.0000 C   0  0
   -7.8013   -5.9690    0.0000 C   0  0
   -9.0954   -5.2105    0.0000 C   0  0
  -10.4091   -7.4520    0.0000 C   0  0
  -10.3993   -5.9520    0.0000 C   0  0
  3  4  1  0
  3  5  1  0
  6  7  2  0
  5  8  2  0
  5  9  1  0
  4 10  2  0
  4 11  1  0
  2 12  1  0
  1 13  1  0
 12 13  1  0
  2 14  1  0
  1 15  1  0
 14 15  1  0
  1 18  1  0
  6 18  1  0
  3 19  1  0
 10 20  1  0
 16 20  2  0
  8 21  1  0
 17 21  2  0
 11 22  2  0
 16 22  1  0
  9 23  2  0
 17 23  1  0
  7 24  1  0
 17 25  1  0
 16 26  1  0
  2 27  1  0
 19 28  1  0
 27 28  1  0
 24 29  1  0
 24 30  2  0
 30 31  1  0
 29 32  2  0
 31 33  2  0
 32 33  1  0
M  END