
          11280714552D 1   1.00000     0.00000     0

 32 35  0     0  0            999 V2000
    7.8625   -6.0375    0.0000 N   0  0  3  0  0  0           0  0  0
    6.4417   -5.2167    0.0000 N   0  0  3  0  0  0           0  0  0
    3.5875   -5.2167    0.0000 C   0  0  3  0  0  0           0  0  0
    2.8667   -4.8042    0.0000 C   0  0  0  0  0  0           0  0  0
    9.2917   -6.0417    0.0000 C   0  0  0  0  0  0           0  0  0
   10.0042   -6.4542    0.0000 C   0  0  0  0  0  0           0  0  0
    3.5875   -6.0417    0.0000 C   0  0  0  0  0  0           0  0  0
    2.8750   -3.9792    0.0000 C   0  0  0  0  0  0           0  0  0
    2.1625   -5.2167    0.0000 C   0  0  0  0  0  0           0  0  0
    7.1500   -4.7917    0.0000 C   0  0  0  0  0  0           0  0  0
    7.1417   -6.4500    0.0000 C   0  0  0  0  0  0           0  0  0
    6.4375   -6.0375    0.0000 C   0  0  0  0  0  0           0  0  0
    7.8667   -5.2125    0.0000 C   0  0  0  0  0  0           0  0  0
    8.5792   -6.4542    0.0000 C   0  0  0  0  0  0           0  0  0
    4.3000   -4.8042    0.0000 O   0  0  0  0  0  0           0  0  0
    1.4417   -4.8042    0.0000 C   0  0  0  0  0  0           0  0  0
    2.1667   -3.5667    0.0000 C   0  0  0  0  0  0           0  0  0
   10.7167   -6.0500    0.0000 C   0  0  0  0  0  0           0  0  0
    1.4500   -3.9792    0.0000 C   0  0  0  0  0  0           0  0  0
    5.7292   -4.8042    0.0000 C   0  0  0  0  0  0           0  0  0
    5.0125   -5.2167    0.0000 C   0  0  0  0  0  0           0  0  0
    4.3042   -6.4417    0.0000 C   0  0  0  0  0  0           0  0  0
    2.8750   -6.4500    0.0000 C   0  0  0  0  0  0           0  0  0
    0.7292   -3.5625    0.0000 C   0  0  0  0  0  0           0  0  0
   10.7167   -5.2292    0.0000 C   0  0  0  0  0  0           0  0  0
   11.4292   -6.4667    0.0000 C   0  0  0  0  0  0           0  0  0
    4.3000   -7.2750    0.0000 C   0  0  0  0  0  0           0  0  0
    2.8667   -7.2667    0.0000 C   0  0  0  0  0  0           0  0  0
   12.1417   -6.0625    0.0000 C   0  0  0  0  0  0           0  0  0
   11.4375   -4.8167    0.0000 C   0  0  0  0  0  0           0  0  0
   12.1542   -5.2375    0.0000 C   0  0  0  0  0  0           0  0  0
    3.5792   -7.6875    0.0000 C   0  0  0  0  0  0           0  0  0
  2 10  1  0     0  0
  3 15  1  0     0  0
  4  3  1  0     0  0
  5 14  1  0     0  0
  6  5  2  0     0  0
  7  3  1  0     0  0
  8  4  1  0     0  0
  9  4  2  0     0  0
 10 13  1  0     0  0
 11  1  1  0     0  0
 12 11  1  0     0  0
 13  1  1  0     0  0
 14  1  1  0     0  0
 15 21  1  0     0  0
 16  9  1  0     0  0
 17  8  2  0     0  0
 18  6  1  0     0  0
 19 16  2  0     0  0
 20  2  1  0     0  0
 21 20  1  0     0  0
 22  7  1  0     0  0
 23  7  2  0     0  0
 24 19  1  0     0  0
 25 18  1  0     0  0
 26 18  2  0     0  0
 27 22  2  0     0  0
 28 23  1  0     0  0
 29 26  1  0     0  0
 30 25  2  0     0  0
 31 29  2  0     0  0
 32 28  2  0     0  0
 12  2  1  0     0  0
 31 30  1  0     0  0
 27 32  1  0     0  0
 17 19  1  0     0  0
M  END