
  SciTegic12231509382D

 26 29  0  0  0  0            999 V2000
   23.5681  -17.1159    0.0000 C   0  0
   23.5681  -16.2693    0.0000 C   0  0
   24.2752  -17.5124    0.0000 C   0  0
   22.8663  -17.5124    0.0000 C   0  0
   24.2752  -15.8726    0.0000 C   0  0
   22.8663  -15.8726    0.0000 C   0  0
   24.9975  -17.1159    0.0000 C   0  0
   24.0836  -18.3331    0.0000 C   0  0
   22.1428  -17.1159    0.0000 C   0  0
   25.0022  -16.2650    0.0000 C   0  0  1  0  0  0
   24.2491  -15.0520    0.0000 C   0  0
   22.1428  -16.2693    0.0000 C   0  0
   25.6833  -15.8422    0.0000 N   0  0
   24.9771  -14.6496    0.0000 C   0  0  1  0  0  0
   25.6827  -15.0258    0.0000 C   0  0
   26.3946  -16.2528    0.0000 C   0  0
   25.6916  -13.4122    0.0000 C   0  0
   25.6916  -12.5894    0.0000 N   0  0
   26.4015  -13.8218    0.0000 O   0  0
   26.4022  -12.1793    0.0000 C   0  0
   24.9796  -12.1784    0.0000 C   0  0
   26.4022  -11.3579    0.0000 C   0  0
   24.2679  -12.5892    0.0000 C   0  0
   25.7135  -16.6755    0.0000 H   0  0
   23.0565  -18.3331    0.0000 N   0  0
   24.9771  -13.8246    0.0000 N   0  0
  4  9  1  0
  5 10  1  0
  5 11  2  0
  6 12  1  0
  7 10  1  0
  9 12  2  0
 10 13  1  0
 10 24  1  1
 11 14  1  0
 13 15  1  0
 13 16  1  0
 14 15  1  0
 17 18  1  0
 17 19  2  0
 18 20  1  0
 18 21  1  0
 20 22  1  0
 21 23  1  0
  1  2  1  0
  1  3  1  0
  1  4  2  0
  2  5  1  0
  2  6  2  0
  3  8  2  0
  3  7  1  0
 14 26  1  6
 26 17  1  0
  8 25  1  0
  4 25  1  0
M  END