
  SciTegic03161210572D

 34 38  0  0  0  0            999 V2000
   -0.1556  -24.0083    0.0000 C   0  0
   -0.1568  -24.8357    0.0000 C   0  0
    0.5581  -25.2485    0.0000 C   0  0
    0.5563  -23.5955    0.0000 C   0  0
    1.2716  -24.0047    0.0000 C   0  0
    1.2719  -24.8357    0.0000 C   0  0
    2.0619  -23.7477    0.0000 C   0  0
   -0.8716  -25.2476    0.0000 C   0  0
   -1.5857  -24.8345    0.0000 N   0  0
   -0.8722  -26.0726    0.0000 O   0  0
    3.8809  -25.8807    0.0000 C   0  0
    4.0083  -24.9855    0.0000 N   0  0
    3.4125  -24.3707    0.0000 C   0  0
    3.1111  -26.3130    0.0000 C   0  0
    2.3064  -25.9732    0.0000 C   0  0  2  0  0  0
    2.0602  -25.0956    0.0000 N   0  0
    2.5524  -24.4158    0.0000 C   0  0
    3.7143  -23.6029    0.0000 O   0  0
   -2.3005  -25.2464    0.0000 C   0  0
   -3.0617  -24.9271    0.0000 N   0  0
   -2.3703  -26.0689    0.0000 N   0  0
   -3.1735  -26.2573    0.0000 C   0  0
   -3.6023  -25.5566    0.0000 C   0  0
   -4.4216  -25.5785    0.0000 C   0  0
   -4.8132  -26.3005    0.0000 C   0  0
   -4.3793  -27.0018    0.0000 C   0  0
   -3.5614  -26.9764    0.0000 C   0  0
   -1.7460  -26.6082    0.0000 C   0  0
   -1.9010  -27.4185    0.0000 C   0  0
   -1.2767  -27.9579    0.0000 C   0  0
   -1.4316  -28.7682    0.0000 N   0  0
   -0.8073  -29.3075    0.0000 C   0  0
   -2.2108  -29.0392    0.0000 C   0  0
    1.6226  -26.5759    0.0000 C   0  0
 16 17  1  0
 17 13  1  0
 14 15  1  0
  1  2  2  0
 13 18  2  0
  2  8  1  0
  9 19  1  0
 19 20  2  0
  5  4  2  0
  8  9  1  0
 20 23  1  0
 22 21  1  0
 21 19  1  0
  4  1  1  0
  8 10  2  0
 22 23  2  0
  5  6  1  0
 23 24  1  0
 24 25  2  0
  2  3  1  0
 25 26  1  0
  3  6  2  0
 26 27  2  0
 27 22  1  0
  6 16  1  0
 21 28  1  0
 17  7  2  0
 28 29  1  0
  7  5  1  0
 29 30  1  0
 11 12  1  0
 30 31  1  0
 12 13  1  0
 31 32  1  0
 11 14  1  0
 31 33  1  0
 15 16  1  0
 15 34  1  1
M  END