
  SciTegic01111613442D

 20 21  0  0  0  0            999 V2000
   -4.9153    0.7255    0.0000 S   0  0
    1.7138   -1.2033    0.0000 N   0  0
    0.2917    0.7475    0.0000 C   0  0
    1.7138    1.2033    0.0000 C   0  0
    2.5889    0.0182    0.0000 C   0  0
    0.2917   -0.7475    0.0000 C   0  0
   -4.9050   -0.4745    0.0000 O   0  0
   -3.8710    0.1342    0.0000 O   0  0
   -3.6217    1.4865    0.0000 C   0  0
   -1.0028    1.5132    0.0000 C   0  0
   -6.2216    1.4644    0.0000 N   0  0
   -2.3155    0.7475    0.0000 C   0  0
    2.1812    2.6271    0.0000 C   0  0
   -1.0028   -1.5132    0.0000 C   0  0
    4.1182    4.3614    0.0000 N   0  0
    3.6500    2.9355    0.0000 C   0  0
   -2.3155   -0.7475    0.0000 C   0  0
   -7.2559    0.8558    0.0000 C   0  0
    5.2926    4.6080    0.0000 C   0  0
    3.3178    5.2555    0.0000 C   0  0
  2  6  1  0
  3 10  2  0
  4  3  1  0
  5  4  2  0
  6 14  2  0
  7  1  2  0
  8  1  2  0
  9  1  1  0
 10 12  1  0
 11  1  1  0
 12  9  1  0
 13  4  1  0
 14 17  1  0
 15 16  1  0
 16 13  1  0
 17 12  2  0
 18 11  1  0
 19 15  1  0
 20 15  1  0
  3  6  1  0
  2  5  1  0
M  END