
  SciTegic          2D

 23 26  0  0  0  0            999 V2000
   -1.2288   -3.3957    0.0000 N   0  0
   -0.8932   -2.6420    0.0000 C   0  0
   -1.3057   -1.9275    0.0000 N   0  0
   -0.7537   -1.3144    0.0000 C   0  0
    0.0000   -1.6500    0.0000 C   0  0
   -0.0862   -2.4705    0.0000 S   0  0
    0.7145   -1.2375    0.0000 C   0  0
    0.7145   -0.4125    0.0000 C   0  0
    1.4289    0.0000    0.0000 C   0  0
    2.1434   -0.4125    0.0000 C   0  0
    2.8579    0.0000    0.0000 N   0  0
    3.5724   -0.4125    0.0000 C   0  0
    3.5724   -1.2375    0.0000 C   0  0
    2.8579   -1.6500    0.0000 C   0  0
    2.1434   -1.2375    0.0000 C   0  0
    1.4289   -1.6500    0.0000 N   0  0
   -0.9252   -0.5075    0.0000 C   0  0
   -1.7098   -0.2525    0.0000 C   0  0
   -1.8814    0.5544    0.0000 C   0  0
   -1.2683    1.1065    0.0000 C   0  0
   -0.4836    0.8515    0.0000 C   0  0
    0.1295    1.4036    0.0000 Cl  0  0
   -0.3121    0.0446    0.0000 C   0  0
  1  2  1  0
  2  3  2  0
  3  4  1  0
  4  5  2  0
  5  6  1  0
  2  6  1  0
  5  7  1  0
  7  8  2  0
  8  9  1  0
  9 10  2  0
 10 11  1  0
 11 12  2  0
 12 13  1  0
 13 14  2  0
 14 15  1  0
 10 15  1  0
 15 16  2  0
  7 16  1  0
  4 17  1  0
 17 18  2  0
 18 19  1  0
 19 20  2  0
 20 21  1  0
 21 22  1  0
 21 23  2  0
 17 23  1  0
M  END