
  SciTegic10311316292D

 40 44  0  0  0  0            999 V2000
   17.9782   -7.5900    0.0000 C   0  0  2  0  0  0
   11.9387   -7.2061    0.0000 C   0  0
   11.9375   -8.0256    0.0000 C   0  0
   12.6456   -8.4346    0.0000 C   0  0
   13.3552   -8.0252    0.0000 C   0  0
   13.3524   -7.2025    0.0000 C   0  0
   12.6438   -6.7972    0.0000 C   0  0
   14.0636   -8.4327    0.0000 N   0  0
   14.7706   -8.0229    0.0000 C   0  0
   14.0586   -6.7912    0.0000 O   0  0
   14.0555   -5.9741    0.0000 C   0  0
   11.2308   -6.7977    0.0000 C   0  0
   11.2307   -5.9805    0.0000 O   0  0
   10.5232   -7.2064    0.0000 N   0  0
    9.8154   -6.7980    0.0000 C   0  0
   15.4757   -8.4309    0.0000 N   0  0
   15.4681   -6.7965    0.0000 C   0  0
   14.7644   -7.2078    0.0000 N   0  0
   16.1873   -8.0207    0.0000 C   0  0
   16.1814   -7.2038    0.0000 C   0  0
   16.8191   -6.6841    0.0000 N   0  0
   16.8354   -8.5274    0.0000 N   0  0
   17.6205   -6.8549    0.0000 C   0  0
   17.6348   -8.3359    0.0000 C   0  0
   16.6610   -9.3242    0.0000 C   0  0
   15.9129   -9.6530    0.0000 C   0  0
   15.9944  -10.4662    0.0000 C   0  0
   16.7930  -10.6399    0.0000 C   0  0
   17.2048   -9.9341    0.0000 C   0  0
   16.6273   -5.8897    0.0000 C   0  0
   18.1231   -6.2106    0.0000 O   0  0
    9.8137   -5.9759    0.0000 C   0  0
    9.1099   -5.5675    0.0000 C   0  0
    8.4062   -5.9728    0.0000 N   0  0
    8.3997   -6.7910    0.0000 C   0  0
    9.1064   -7.2038    0.0000 C   0  0
    7.7003   -5.5610    0.0000 C   0  0
   18.7954   -7.5812    0.0000 C   0  0
   19.2115   -8.2845    0.0000 C   0  0
   20.0287   -8.2757    0.0000 C   0  0
  2  3  2  0
  3  4  1  0
  4  5  2  0
  5  6  1  0
  6  7  2  0
  7  2  1  0
  5  8  1  0
  8  9  1  0
  6 10  1  0
 10 11  1  0
  2 12  1  0
 12 13  2  0
 12 14  1  0
 14 15  1  0
  9 16  2  0
 16 19  1  0
 20 17  1  0
 17 18  2  0
 18  9  1  0
 19 20  2  0
 20 21  1  0
 19 22  1  0
 21 23  1  0
 22 24  1  0
 23  1  1  0
 24  1  1  0
 25 26  1  0
 26 27  1  0
 27 28  1  0
 28 29  1  0
 29 25  1  0
 22 25  1  0
 21 30  1  0
 23 31  2  0
 15 32  1  0
 15 36  1  0
 32 33  1  0
 33 34  1  0
 34 35  1  0
 35 36  1  0
 34 37  1  0
  1 38  1  1
 38 39  1  0
 39 40  2  0
M  END