
          11280714542D 1   1.00000     0.00000     0

 31 34  0     0  0            999 V2000
    7.1875   -6.4042    0.0000 N   0  0  3  0  0  0           0  0  0
    5.7667   -5.5875    0.0000 N   0  0  3  0  0  0           0  0  0
    2.9125   -5.5875    0.0000 C   0  0  3  0  0  0           0  0  0
    2.9125   -6.4125    0.0000 C   0  0  0  0  0  0           0  0  0
    2.1917   -5.1750    0.0000 C   0  0  0  0  0  0           0  0  0
    7.9042   -6.8250    0.0000 C   0  0  0  0  0  0           0  0  0
    2.1917   -6.8167    0.0000 C   0  0  0  0  0  0           0  0  0
    3.6292   -6.8167    0.0000 C   0  0  0  0  0  0           0  0  0
    2.1917   -4.3500    0.0000 C   0  0  0  0  0  0           0  0  0
    1.4875   -5.5917    0.0000 C   0  0  0  0  0  0           0  0  0
    6.4667   -6.8167    0.0000 C   0  0  0  0  0  0           0  0  0
    7.1917   -5.5792    0.0000 C   0  0  0  0  0  0           0  0  0
    5.7625   -6.4042    0.0000 C   0  0  0  0  0  0           0  0  0
    6.4750   -5.1667    0.0000 C   0  0  0  0  0  0           0  0  0
    0.7750   -4.3500    0.0000 C   0  0  0  0  0  0           0  0  0
    2.9042   -8.0542    0.0000 C   0  0  0  0  0  0           0  0  0
    3.6250   -5.1750    0.0000 O   0  0  0  0  0  0           0  0  0
    1.4917   -3.9375    0.0000 C   0  0  0  0  0  0           0  0  0
    2.1917   -7.6417    0.0000 C   0  0  0  0  0  0           0  0  0
    0.7667   -5.1750    0.0000 C   0  0  0  0  0  0           0  0  0
    3.6250   -7.6417    0.0000 C   0  0  0  0  0  0           0  0  0
    0.0542   -3.9292    0.0000 F   0  0  0  0  0  0           0  0  0
    2.9042   -8.8792    0.0000 F   0  0  0  0  0  0           0  0  0
    8.6167   -6.4167    0.0000 C   0  0  0  0  0  0           0  0  0
    5.0542   -5.1750    0.0000 C   0  0  0  0  0  0           0  0  0
    4.3375   -5.5875    0.0000 C   0  0  0  0  0  0           0  0  0
    9.3292   -6.8292    0.0000 C   0  0  0  0  0  0           0  0  0
    8.6167   -5.5917    0.0000 C   0  0  0  0  0  0           0  0  0
    9.3292   -5.1792    0.0000 C   0  0  0  0  0  0           0  0  0
   10.0417   -6.4250    0.0000 C   0  0  0  0  0  0           0  0  0
   10.0500   -5.6000    0.0000 C   0  0  0  0  0  0           0  0  0
  2 14  1  0     0  0
  3 17  1  0     0  0
  4  3  1  0     0  0
  5  3  1  0     0  0
  6  1  1  0     0  0
  7  4  2  0     0  0
  8  4  1  0     0  0
  9  5  1  0     0  0
 10  5  2  0     0  0
 11  1  1  0     0  0
 12  1  1  0     0  0
 13 11  1  0     0  0
 14 12  1  0     0  0
 15 20  2  0     0  0
 16 21  1  0     0  0
 17 26  1  0     0  0
 18  9  2  0     0  0
 19  7  1  0     0  0
 20 10  1  0     0  0
 21  8  2  0     0  0
 22 15  1  0     0  0
 23 16  1  0     0  0
 24  6  1  0     0  0
 25  2  1  0     0  0
 26 25  1  0     0  0
 27 24  2  0     0  0
 28 24  1  0     0  0
 29 28  2  0     0  0
 30 27  1  0     0  0
 31 29  1  0     0  0
  2 13  1  0     0  0
 30 31  2  0     0  0
 18 15  1  0     0  0
 19 16  2  0     0  0
M  END