
          11280714552D 1   1.00000     0.00000     0

 33 36  0     0  0            999 V2000
    4.3250   -9.4667    0.0000 N   0  0  3  0  0  0           0  0  0
    9.3042   -8.2292    0.0000 N   0  0  3  0  0  0           0  0  0
    7.8875   -9.0500    0.0000 N   0  0  3  0  0  0           0  0  0
    4.3250  -10.2917    0.0000 C   0  0  0  0  0  0           0  0  0
    3.6042   -9.0542    0.0000 C   0  0  0  0  0  0           0  0  0
    9.3042   -9.0500    0.0000 C   0  0  0  0  0  0           0  0  0
    8.5917   -9.4625    0.0000 C   0  0  0  0  0  0           0  0  0
    8.5917   -7.8167    0.0000 C   0  0  0  0  0  0           0  0  0
    7.8792   -8.2292    0.0000 C   0  0  0  0  0  0           0  0  0
    3.6125  -10.7000    0.0000 C   0  0  0  0  0  0           0  0  0
   10.0167   -7.8167    0.0000 C   0  0  0  0  0  0           0  0  0
    7.1792   -9.4667    0.0000 C   0  0  0  0  0  0           0  0  0
   12.1625   -8.2292    0.0000 C   0  0  0  0  0  0           0  0  0
    5.0375   -9.0542    0.0000 C   0  0  0  0  0  0           0  0  0
   10.7292   -8.2292    0.0000 C   0  0  0  0  0  0           0  0  0
    2.9000   -9.4667    0.0000 C   0  0  0  0  0  0           0  0  0
    3.6125   -8.2292    0.0000 C   0  0  0  0  0  0           0  0  0
   11.4417   -7.8167    0.0000 C   0  0  0  0  0  0           0  0  0
    3.6125  -11.5167    0.0000 C   0  0  0  0  0  0           0  0  0
    2.9000  -10.2792    0.0000 C   0  0  0  0  0  0           0  0  0
   12.1542   -9.0542    0.0000 C   0  0  0  0  0  0           0  0  0
   12.8667   -7.8125    0.0000 C   0  0  0  0  0  0           0  0  0
    6.4667   -9.0542    0.0000 C   0  0  0  0  0  0           0  0  0
    5.7500   -9.4667    0.0000 C   0  0  0  0  0  0           0  0  0
    2.1792   -9.0542    0.0000 C   0  0  0  0  0  0           0  0  0
    2.9042   -7.8167    0.0000 C   0  0  0  0  0  0           0  0  0
    2.9042  -11.9250    0.0000 C   0  0  0  0  0  0           0  0  0
   12.8667   -9.4667    0.0000 C   0  0  0  0  0  0           0  0  0
   13.5792   -8.2167    0.0000 C   0  0  0  0  0  0           0  0  0
    2.1917  -10.6917    0.0000 C   0  0  0  0  0  0           0  0  0
   13.5875   -9.0500    0.0000 C   0  0  0  0  0  0           0  0  0
    2.1875   -8.2292    0.0000 C   0  0  0  0  0  0           0  0  0
    2.1875  -11.5125    0.0000 C   0  0  0  0  0  0           0  0  0
  2  8  1  0     0  0
  3 12  1  0     0  0
  4  1  1  0     0  0
  5  1  1  0     0  0
  6  7  1  0     0  0
  7  3  1  0     0  0
  8  9  1  0     0  0
  9  3  1  0     0  0
 10  4  1  0     0  0
 11  2  1  0     0  0
 12 23  1  0     0  0
 13 18  1  0     0  0
 14  1  1  0     0  0
 15 11  1  0     0  0
 16  5  2  0     0  0
 17  5  1  0     0  0
 18 15  1  0     0  0
 19 10  1  0     0  0
 20 10  2  0     0  0
 21 13  2  0     0  0
 22 13  1  0     0  0
 23 24  1  0     0  0
 24 14  1  0     0  0
 25 16  1  0     0  0
 26 17  2  0     0  0
 27 19  2  0     0  0
 28 21  1  0     0  0
 29 22  2  0     0  0
 30 20  1  0     0  0
 31 29  1  0     0  0
 32 26  1  0     0  0
 33 30  2  0     0  0
 25 32  2  0     0  0
 33 27  1  0     0  0
  6  2  1  0     0  0
 28 31  2  0     0  0
M  END