
          11280714552D 1   1.00000     0.00000     0

 27 29  0     0  0            999 V2000
    6.1250   -7.1417    0.0000 N   0  0  3  0  0  0           0  0  0
    7.5542   -6.3250    0.0000 N   0  0  3  0  0  0           0  0  0
    3.9792   -7.5542    0.0000 N   0  0  3  0  0  0           0  0  0
    5.4042   -7.5542    0.0000 C   0  0  0  0  0  0           0  0  0
    6.8375   -7.5542    0.0000 C   0  0  0  0  0  0           0  0  0
    6.1167   -6.3167    0.0000 C   0  0  0  0  0  0           0  0  0
    6.8417   -5.9125    0.0000 C   0  0  0  0  0  0           0  0  0
    7.5500   -7.1500    0.0000 C   0  0  0  0  0  0           0  0  0
    4.6917   -7.1417    0.0000 C   0  0  0  0  0  0           0  0  0
    3.2667   -7.1417    0.0000 C   0  0  0  0  0  0           0  0  0
    3.2667   -6.3167    0.0000 C   0  0  0  0  0  0           0  0  0
    8.2667   -5.9167    0.0000 C   0  0  0  0  0  0           0  0  0
    2.5625   -5.9042    0.0000 C   0  0  0  0  0  0           0  0  0
   10.4125   -6.3375    0.0000 C   0  0  0  0  0  0           0  0  0
    8.9792   -6.3292    0.0000 C   0  0  0  0  0  0           0  0  0
    9.7000   -5.9167    0.0000 C   0  0  0  0  0  0           0  0  0
    3.9792   -8.3792    0.0000 C   0  0  0  0  0  0           0  0  0
    2.5667   -5.0917    0.0000 C   0  0  0  0  0  0           0  0  0
    1.8542   -6.3167    0.0000 C   0  0  0  0  0  0           0  0  0
   10.4042   -7.1625    0.0000 C   0  0  0  0  0  0           0  0  0
   11.1167   -5.9250    0.0000 C   0  0  0  0  0  0           0  0  0
   11.8292   -6.3375    0.0000 C   0  0  0  0  0  0           0  0  0
    1.8542   -4.6792    0.0000 C   0  0  0  0  0  0           0  0  0
    1.1417   -5.9125    0.0000 C   0  0  0  0  0  0           0  0  0
   11.1167   -7.5750    0.0000 C   0  0  0  0  0  0           0  0  0
   11.8292   -7.1667    0.0000 C   0  0  0  0  0  0           0  0  0
    1.1417   -5.0875    0.0000 C   0  0  0  0  0  0           0  0  0
  2  7  1  0     0  0
  3  9  1  0     0  0
  4  1  1  0     0  0
  5  1  1  0     0  0
  6  1  1  0     0  0
  7  6  1  0     0  0
  8  5  1  0     0  0
  9  4  1  0     0  0
 10  3  1  0     0  0
 11 10  1  0     0  0
 12  2  1  0     0  0
 13 11  1  0     0  0
 14 16  1  0     0  0
 15 12  1  0     0  0
 16 15  1  0     0  0
 17  3  1  0     0  0
 18 13  2  0     0  0
 19 13  1  0     0  0
 20 14  2  0     0  0
 21 14  1  0     0  0
 22 21  2  0     0  0
 23 18  1  0     0  0
 24 19  2  0     0  0
 25 20  1  0     0  0
 26 22  1  0     0  0
 27 24  1  0     0  0
  8  2  1  0     0  0
 23 27  2  0     0  0
 25 26  2  0     0  0
M  END