
          11280714552D 1   1.00000     0.00000     0

 35 38  0     0  0            999 V2000
    2.9792   -6.9417    0.0000 N   0  0  3  0  0  0           0  0  0
    3.6917   -6.5292    0.0000 C   0  0  0  0  0  0           0  0  0
    8.6625   -7.7625    0.0000 N   0  0  3  0  0  0           0  0  0
    7.2542   -6.9375    0.0000 N   0  0  3  0  0  0           0  0  0
    2.9792   -7.7667    0.0000 C   0  0  0  0  0  0           0  0  0
    2.2667   -6.5292    0.0000 C   0  0  0  0  0  0           0  0  0
    3.6917   -5.7042    0.0000 O   0  0  0  0  0  0           0  0  0
    7.9500   -8.1667    0.0000 C   0  0  0  0  0  0           0  0  0
    7.2500   -7.7542    0.0000 C   0  0  0  0  0  0           0  0  0
    8.6667   -6.9417    0.0000 C   0  0  0  0  0  0           0  0  0
    7.9542   -6.5250    0.0000 C   0  0  0  0  0  0           0  0  0
    2.2667   -8.1750    0.0000 C   0  0  0  0  0  0           0  0  0
    9.3750   -8.1792    0.0000 C   0  0  0  0  0  0           0  0  0
    6.5417   -6.5250    0.0000 C   0  0  0  0  0  0           0  0  0
    4.4042   -6.9417    0.0000 C   0  0  0  0  0  0           0  0  0
   11.5167   -7.7792    0.0000 C   0  0  0  0  0  0           0  0  0
   10.0917   -7.7667    0.0000 C   0  0  0  0  0  0           0  0  0
    1.5542   -6.9417    0.0000 C   0  0  0  0  0  0           0  0  0
    2.2667   -5.7042    0.0000 C   0  0  0  0  0  0           0  0  0
   10.8042   -8.1875    0.0000 C   0  0  0  0  0  0           0  0  0
    1.5542   -7.7542    0.0000 C   0  0  0  0  0  0           0  0  0
    2.2667   -8.9917    0.0000 C   0  0  0  0  0  0           0  0  0
   12.2292   -8.2000    0.0000 C   0  0  0  0  0  0           0  0  0
   11.5167   -6.9542    0.0000 C   0  0  0  0  0  0           0  0  0
    5.8375   -6.9417    0.0000 C   0  0  0  0  0  0           0  0  0
    5.1250   -6.5292    0.0000 C   0  0  0  0  0  0           0  0  0
    0.8417   -6.5292    0.0000 C   0  0  0  0  0  0           0  0  0
    1.5625   -5.2917    0.0000 C   0  0  0  0  0  0           0  0  0
    1.5625   -9.4000    0.0000 C   0  0  0  0  0  0           0  0  0
   12.9417   -7.7917    0.0000 C   0  0  0  0  0  0           0  0  0
   12.2292   -6.5500    0.0000 C   0  0  0  0  0  0           0  0  0
    0.8500   -8.1667    0.0000 C   0  0  0  0  0  0           0  0  0
   12.9542   -6.9667    0.0000 C   0  0  0  0  0  0           0  0  0
    0.8417   -5.7042    0.0000 C   0  0  0  0  0  0           0  0  0
    0.8417   -8.9875    0.0000 C   0  0  0  0  0  0           0  0  0
  2  1  1  0     0  0
  3 10  1  0     0  0
  4 14  1  0     0  0
  5  1  1  0     0  0
  6  1  1  0     0  0
  7  2  2  0     0  0
  8  9  1  0     0  0
  9  4  1  0     0  0
 10 11  1  0     0  0
 11  4  1  0     0  0
 12  5  1  0     0  0
 13  3  1  0     0  0
 14 25  1  0     0  0
 15  2  1  0     0  0
 16 20  1  0     0  0
 17 13  1  0     0  0
 18  6  2  0     0  0
 19  6  1  0     0  0
 20 17  1  0     0  0
 21 12  2  0     0  0
 22 12  1  0     0  0
 23 16  2  0     0  0
 24 16  1  0     0  0
 25 26  1  0     0  0
 26 15  1  0     0  0
 27 18  1  0     0  0
 28 19  2  0     0  0
 29 22  2  0     0  0
 30 23  1  0     0  0
 31 24  2  0     0  0
 32 21  1  0     0  0
 33 31  1  0     0  0
 34 28  1  0     0  0
 35 29  1  0     0  0
 27 34  2  0     0  0
 32 35  2  0     0  0
  8  3  1  0     0  0
 30 33  2  0     0  0
M  END