
  SciTegic02181312462D

 26 29  0  0  0  0            999 V2000
    8.1215   -8.8193    0.0000 N   0  0
    8.8306   -9.2279    0.0000 C   0  0
    9.5356   -8.8193    0.0000 O   0  0
    8.8306  -10.0451    0.0000 N   0  0
    9.5356  -10.4537    0.0000 C   0  0
    9.5356  -11.2709    0.0000 C   0  0
   10.2446  -11.6794    0.0000 C   0  0
   10.9537  -11.2709    0.0000 C   0  0
   10.9537  -10.4537    0.0000 C   0  0
   10.2446  -10.0451    0.0000 C   0  0
    7.4134  -10.0445    0.0000 C   0  0
    6.7085  -10.4531    0.0000 C   0  0
    5.9994  -10.0445    0.0000 C   0  0
    5.9994   -9.2273    0.0000 C   0  0
    6.7085   -8.8187    0.0000 C   0  0
    7.4135   -9.2273    0.0000 C   0  0
    5.2903   -8.8187    0.0000 O   0  0
    3.1672  -10.0445    0.0000 C   0  0
    3.8763  -10.4531    0.0000 C   0  0
    4.5853  -10.0445    0.0000 C   0  0
    4.5853   -9.2273    0.0000 C   0  0
    3.8763   -8.8187    0.0000 N   0  0
    3.1672   -9.2273    0.0000 N   0  0
    2.3899  -10.2950    0.0000 N   0  0
    1.9098   -9.6359    0.0000 C   0  0
    2.3899   -8.9726    0.0000 C   0  0
  1  2  1  0
  2  3  2  0
  2  4  1  0
  5  6  1  0
  6  7  2  0
  7  8  1  0
  8  9  2  0
  9 10  1  0
  5 10  2  0
  4  5  1  0
 11 12  1  0
 12 13  2  0
 13 14  1  0
 14 15  2  0
 15 16  1  0
 11 16  2  0
 18 19  1  0
 19 20  2  0
 20 21  1  0
 21 22  2  0
 22 23  1  0
 18 23  1  0
 24 25  1  0
 25 26  2  0
 23 26  1  0
 18 24  2  0
 17 21  1  0
 14 17  1  0
 16  1  1  0
M  END