
  SciTegic05221516342D

 28 31  0  0  0  0            999 V2000
    6.3766   -6.2651    0.0000 C   0  0
    7.0850   -7.4909    0.0000 C   0  0
    7.0839   -8.3104    0.0000 C   0  0
    7.7919   -8.7194    0.0000 C   0  0
    7.7901   -7.0820    0.0000 C   0  0
    8.4988   -7.4873    0.0000 C   0  0
    8.4990   -8.3059    0.0000 C   0  0
    9.2777   -8.5587    0.0000 N   0  0
    9.7587   -7.8962    0.0000 C   0  0
    9.2773   -7.2341    0.0000 N   0  0
   10.5759   -7.8959    0.0000 O   0  0
    9.5295   -6.4568    0.0000 C   0  0
    9.5304   -9.3358    0.0000 C   0  0
    6.3772   -7.0825    0.0000 N   0  0
    5.6692   -5.8568    0.0000 C   0  0
    7.0841   -5.8562    0.0000 O   0  0
    6.3759   -8.7185    0.0000 N   0  0
    5.6323   -8.3888    0.0000 C   0  0
    5.0850   -8.9956    0.0000 C   0  0
    5.4930   -9.7037    0.0000 C   0  0
    6.2925   -9.5343    0.0000 C   0  0
    5.6744   -5.0393    0.0000 C   0  0
    4.9679   -4.6311    0.0000 C   0  0
    4.2597   -5.0396    0.0000 C   0  0
    4.2624   -5.8606    0.0000 C   0  0
    4.9695   -6.2651    0.0000 C   0  0
    4.9729   -7.0823    0.0000 O   0  0
    4.2670   -7.4939    0.0000 C   0  0
  2  3  2  0
  3  4  1  0
  4  7  2  0
  6  5  2  0
  5  2  1  0
  6  7  1  0
  7  8  1  0
  8  9  1  0
  9 10  1  0
 10  6  1  0
  9 11  2  0
 10 12  1  0
  8 13  1  0
  2 14  1  0
 14  1  1  0
  1 15  1  0
  1 16  2  0
  3 17  1  0
 17 18  1  0
 18 19  1  0
 19 20  1  0
 20 21  1  0
 21 17  1  0
 15 22  2  0
 22 23  1  0
 23 24  2  0
 24 25  1  0
 25 26  2  0
 26 15  1  0
 26 27  1  0
 27 28  1  0
M  END