
          11290713132D 1   1.00000     0.00000     0

 26 29  0     0  0            999 V2000
   13.1303   -1.8200    0.0000 C   0  0  0  0  0  0           0  0  0
   13.1291   -2.6470    0.0000 C   0  0  0  0  0  0           0  0  0
   13.8436   -3.0596    0.0000 C   0  0  0  0  0  0           0  0  0
   14.5598   -2.6465    0.0000 C   0  0  0  0  0  0           0  0  0
   14.5569   -1.8164    0.0000 C   0  0  0  0  0  0           0  0  0
   13.8418   -1.4074    0.0000 C   0  0  0  0  0  0           0  0  0
   13.8394   -0.5827    0.0000 N   0  0  0  0  0  0           0  0  0
   14.5523   -0.1683    0.0000 C   0  0  0  0  0  0           0  0  0
   15.2655   -0.5809    0.0000 C   0  0  0  0  0  0           0  0  0
   15.2556    1.0683    0.0000 C   0  0  0  0  0  0           0  0  0
   14.5461    0.6522    0.0000 C   0  0  0  0  0  0           0  0  0
   15.9759    0.6584    0.0000 C   0  0  0  0  0  0           0  0  0
   15.9739   -0.1698    0.0000 C   0  0  0  0  0  0           0  0  0
   16.7610   -0.4277    0.0000 N   0  0  0  0  0  0           0  0  0
   17.2495    0.2412    0.0000 C   0  0  0  0  0  0           0  0  0
   16.7633    0.9122    0.0000 N   0  0  3  0  0  0           0  0  0
   18.0741    0.2392    0.0000 O   0  0  0  0  0  0           0  0  0
   17.2061    1.6079    0.0000 C   0  0  0  0  0  0           0  0  0
   16.8251    2.3392    0.0000 C   0  0  3  0  0  0           0  0  0
   17.2745    3.0355    0.0000 C   0  0  0  0  0  0           0  0  0
   16.8968    3.7645    0.0000 C   0  0  0  0  0  0           0  0  0
   16.0728    3.8044    0.0000 C   0  0  0  0  0  0           0  0  0
   15.6278    3.1090    0.0000 C   0  0  0  0  0  0           0  0  0
   16.0068    2.3737    0.0000 C   0  0  0  0  0  0           0  0  0
   13.8434   -3.8843    0.0000 F   0  0  0  0  0  0           0  0  0
   15.2694   -1.4014    0.0000 F   0  0  0  0  0  0           0  0  0
  5  6  2  0     0  0
  6  1  1  0     0  0
  1  2  2  0     0  0
  6  7  1  0     0  0
  3  4  2  0     0  0
 13 14  1  0     0  0
 14 15  1  0     0  0
 15 16  1  0     0  0
 16 12  1  0     0  0
  7  8  1  0     0  0
 15 17  2  0     0  0
 16 18  1  0     0  0
  8  9  2  0     0  0
 18 19  1  0     0  0
 19 20  1  0     0  0
  9 13  1  0     0  0
  4  5  1  0     0  0
 12 10  1  0     0  0
  2  3  1  0     0  0
 10 11  2  0     0  0
 19 24  1  0     0  0
 20 21  1  0     0  0
 21 22  1  0     0  0
 22 23  1  0     0  0
 23 24  1  0     0  0
 11  8  1  0     0  0
  3 25  1  0     0  0
 12 13  2  0     0  0
  5 26  1  0     0  0
M  END