
          11280714542D 1   1.00000     0.00000     0

 33 36  0     0  0            999 V2000
    8.8375  -11.2542    0.0000 N   0  0  3  0  0  0           0  0  0
    7.4167  -10.4375    0.0000 N   0  0  3  0  0  0           0  0  0
    4.5625  -10.4375    0.0000 C   0  0  3  0  0  0           0  0  0
    4.5625  -11.2625    0.0000 C   0  0  0  0  0  0           0  0  0
    3.8417  -10.0250    0.0000 C   0  0  0  0  0  0           0  0  0
   10.2667  -11.2667    0.0000 C   0  0  0  0  0  0           0  0  0
   10.9792  -11.6792    0.0000 C   0  0  0  0  0  0           0  0  0
    3.8500  -11.6667    0.0000 C   0  0  0  0  0  0           0  0  0
    5.2792  -11.6667    0.0000 C   0  0  0  0  0  0           0  0  0
    3.8500   -9.2000    0.0000 C   0  0  0  0  0  0           0  0  0
    3.1375  -10.4417    0.0000 C   0  0  0  0  0  0           0  0  0
    7.4125  -11.2542    0.0000 C   0  0  0  0  0  0           0  0  0
    8.8417  -10.4292    0.0000 C   0  0  0  0  0  0           0  0  0
    8.1250  -10.0167    0.0000 C   0  0  0  0  0  0           0  0  0
    8.1167  -11.6667    0.0000 C   0  0  0  0  0  0           0  0  0
    2.4250   -9.2000    0.0000 C   0  0  0  0  0  0           0  0  0
    4.5542  -12.9042    0.0000 C   0  0  0  0  0  0           0  0  0
    9.5542  -11.6750    0.0000 C   0  0  0  0  0  0           0  0  0
    5.2750  -10.0250    0.0000 O   0  0  0  0  0  0           0  0  0
    3.1417   -8.7875    0.0000 C   0  0  0  0  0  0           0  0  0
    3.8417  -12.4917    0.0000 C   0  0  0  0  0  0           0  0  0
    2.4167  -10.0250    0.0000 C   0  0  0  0  0  0           0  0  0
    5.2750  -12.4917    0.0000 C   0  0  0  0  0  0           0  0  0
   11.6917  -11.2667    0.0000 C   0  0  0  0  0  0           0  0  0
    1.7042   -8.7792    0.0000 Cl  0  0  0  0  0  0           0  0  0
    4.5542  -13.7292    0.0000 Cl  0  0  0  0  0  0           0  0  0
    6.7042  -10.0250    0.0000 C   0  0  0  0  0  0           0  0  0
    5.9875  -10.4375    0.0000 C   0  0  0  0  0  0           0  0  0
   11.6917  -10.4500    0.0000 C   0  0  0  0  0  0           0  0  0
   12.4042  -11.6917    0.0000 C   0  0  0  0  0  0           0  0  0
   13.1167  -11.2792    0.0000 C   0  0  0  0  0  0           0  0  0
   12.4125  -10.0417    0.0000 C   0  0  0  0  0  0           0  0  0
   13.1292  -10.4542    0.0000 C   0  0  0  0  0  0           0  0  0
  2 12  1  0     0  0
  3 19  1  0     0  0
  4  3  1  0     0  0
  5  3  1  0     0  0
  6 18  1  0     0  0
  7  6  2  0     0  0
  8  4  2  0     0  0
  9  4  1  0     0  0
 10  5  1  0     0  0
 11  5  2  0     0  0
 12 15  1  0     0  0
 13  1  1  0     0  0
 14 13  1  0     0  0
 15  1  1  0     0  0
 16 22  2  0     0  0
 17 23  1  0     0  0
 18  1  1  0     0  0
 19 28  1  0     0  0
 20 10  2  0     0  0
 21  8  1  0     0  0
 22 11  1  0     0  0
 23  9  2  0     0  0
 24  7  1  0     0  0
 25 16  1  0     0  0
 26 17  1  0     0  0
 27  2  1  0     0  0
 28 27  1  0     0  0
 29 24  1  0     0  0
 30 24  2  0     0  0
 31 30  1  0     0  0
 32 29  2  0     0  0
 33 31  2  0     0  0
 14  2  1  0     0  0
 33 32  1  0     0  0
 20 16  1  0     0  0
 21 17  2  0     0  0
M  END