
          11280714552D 1   1.00000     0.00000     0

 34 37  0     0  0            999 V2000
    7.1292   -6.8292    0.0000 N   0  0  3  0  0  0           0  0  0
    5.7042   -6.0042    0.0000 N   0  0  3  0  0  0           0  0  0
    2.8500   -6.0042    0.0000 C   0  0  3  0  0  0           0  0  0
    2.8500   -6.8292    0.0000 C   0  0  0  0  0  0           0  0  0
    2.1292   -5.5917    0.0000 C   0  0  0  0  0  0           0  0  0
    8.5542   -6.8375    0.0000 C   0  0  0  0  0  0           0  0  0
    9.2667   -7.2500    0.0000 C   0  0  0  0  0  0           0  0  0
    2.1292   -7.2417    0.0000 C   0  0  0  0  0  0           0  0  0
    3.5667   -7.2375    0.0000 C   0  0  0  0  0  0           0  0  0
    2.1292   -4.7667    0.0000 C   0  0  0  0  0  0           0  0  0
    1.4250   -6.0125    0.0000 C   0  0  0  0  0  0           0  0  0
    5.7000   -6.8292    0.0000 C   0  0  0  0  0  0           0  0  0
    7.1292   -6.0042    0.0000 C   0  0  0  0  0  0           0  0  0
    6.4125   -5.5875    0.0000 C   0  0  0  0  0  0           0  0  0
    6.4042   -7.2417    0.0000 C   0  0  0  0  0  0           0  0  0
    9.9792   -6.8417    0.0000 C   0  0  0  0  0  0           0  0  0
    0.7125   -4.7667    0.0000 C   0  0  0  0  0  0           0  0  0
    2.8417   -8.4792    0.0000 C   0  0  0  0  0  0           0  0  0
   11.4167   -6.0292    0.0000 C   0  0  0  0  0  0           0  0  0
    7.8417   -7.2417    0.0000 C   0  0  0  0  0  0           0  0  0
    3.5625   -5.5917    0.0000 O   0  0  0  0  0  0           0  0  0
    1.4292   -4.3542    0.0000 C   0  0  0  0  0  0           0  0  0
    2.1292   -8.0625    0.0000 C   0  0  0  0  0  0           0  0  0
    0.7042   -5.5917    0.0000 C   0  0  0  0  0  0           0  0  0
    3.5625   -8.0667    0.0000 C   0  0  0  0  0  0           0  0  0
   12.1292   -5.6167    0.0000 Cl  0  0  0  0  0  0           0  0  0
   -0.0083   -4.3542    0.0000 F   0  0  0  0  0  0           0  0  0
    2.8417   -9.3042    0.0000 F   0  0  0  0  0  0           0  0  0
   10.6917   -7.2625    0.0000 C   0  0  0  0  0  0           0  0  0
    9.9792   -6.0167    0.0000 C   0  0  0  0  0  0           0  0  0
   10.7042   -5.6125    0.0000 C   0  0  0  0  0  0           0  0  0
   11.4042   -6.8542    0.0000 C   0  0  0  0  0  0           0  0  0
    4.9917   -5.5917    0.0000 C   0  0  0  0  0  0           0  0  0
    4.2750   -6.0042    0.0000 C   0  0  0  0  0  0           0  0  0
  2 12  1  0     0  0
  3 21  1  0     0  0
  4  3  1  0     0  0
  5  3  1  0     0  0
  6 20  1  0     0  0
  7  6  2  0     0  0
  8  4  2  0     0  0
  9  4  1  0     0  0
 10  5  1  0     0  0
 11  5  2  0     0  0
 12 15  1  0     0  0
 13  1  1  0     0  0
 14 13  1  0     0  0
 15  1  1  0     0  0
 16  7  1  0     0  0
 17 24  2  0     0  0
 18 25  1  0     0  0
 19 31  1  0     0  0
 20  1  1  0     0  0
 21 34  1  0     0  0
 22 10  2  0     0  0
 23  8  1  0     0  0
 24 11  1  0     0  0
 25  9  2  0     0  0
 26 19  1  0     0  0
 27 17  1  0     0  0
 28 18  1  0     0  0
 29 16  2  0     0  0
 30 16  1  0     0  0
 31 30  2  0     0  0
 32 29  1  0     0  0
 33  2  1  0     0  0
 34 33  1  0     0  0
 14  2  1  0     0  0
 32 19  2  0     0  0
 22 17  1  0     0  0
 23 18  2  0     0  0
M  END