
          11280715482D 1   1.00000     0.00000     0

 29 32  0     0  0            999 V2000
    0.9292   -2.0250    0.0000 C   0  0  0  0  0  0           0  0  0
    0.9042   -1.2042    0.0000 C   0  0  0  0  0  0           0  0  0
    1.7167   -2.2625    0.0000 N   0  0  0  0  0  0           0  0  0
    1.6875   -0.9292    0.0000 S   0  0  0  0  0  0           0  0  0
    2.1792   -1.5792    0.0000 C   0  0  0  0  0  0           0  0  0
    0.5542    1.7625    0.0000 C   0  0  0  0  0  0           0  0  0
   -0.1958    1.4333    0.0000 N   0  0  0  0  0  0           0  0  0
    0.2542   -0.7042    0.0000 C   0  0  0  0  0  0           0  0  0
    0.3000   -2.5500    0.0000 C   0  0  0  0  0  0           0  0  0
   -0.2958    0.6083    0.0000 C   0  0  0  0  0  0           0  0  0
   -1.0583    0.2875    0.0000 N   0  0  0  0  0  0           0  0  0
    0.3542    0.1125    0.0000 C   0  0  0  0  0  0           0  0  0
    0.6500    2.5833    0.0000 O   0  0  0  0  0  0           0  0  0
    0.4417   -3.3625    0.0000 C   0  0  0  0  0  0           0  0  0
    1.2250    1.2708    0.0000 C   0  0  0  0  0  0           0  0  0
   -1.1583   -0.5292    0.0000 C   0  0  0  0  0  0           0  0  0
   -0.1875   -3.8875    0.0000 C   0  0  0  0  0  0           0  0  0
   -0.5000   -1.0250    0.0000 C   0  0  0  0  0  0           0  0  0
    3.0042   -1.5542    0.0000 C   0  0  0  0  0  0           0  0  0
   -0.4708   -2.2667    0.0000 C   0  0  0  0  0  0           0  0  0
   -1.1083   -2.7917    0.0000 C   0  0  0  0  0  0           0  0  0
    1.2167    0.4500    0.0000 C   0  0  0  0  0  0           0  0  0
    1.9292    1.6833    0.0000 C   0  0  0  0  0  0           0  0  0
   -0.9583   -3.6042    0.0000 C   0  0  0  0  0  0           0  0  0
   -0.0458   -4.7000    0.0000 C   0  0  0  0  0  0           0  0  0
    3.5917   -2.1417    0.0000 C   0  0  0  0  0  0           0  0  0
    1.9292    0.0375    0.0000 C   0  0  0  0  0  0           0  0  0
    2.6417    1.2750    0.0000 C   0  0  0  0  0  0           0  0  0
    2.6417    0.4458    0.0000 C   0  0  0  0  0  0           0  0  0
  2  1  2  0     0  0
  3  1  1  0     0  0
  4  2  1  0     0  0
  5  3  2  0     0  0
  6  7  1  0     0  0
  7 10  1  0     0  0
  8  2  1  0     0  0
  9  1  1  0     0  0
 10 12  1  0     0  0
 11 16  1  0     0  0
 12  8  2  0     0  0
 13  6  2  0     0  0
 14  9  1  0     0  0
 15  6  1  0     0  0
 16 18  2  0     0  0
 17 14  2  0     0  0
 18  8  1  0     0  0
 19  5  1  0     0  0
 20  9  2  0     0  0
 21 20  1  0     0  0
 22 15  2  0     0  0
 23 15  1  0     0  0
 24 21  2  0     0  0
 25 17  1  0     0  0
 26 19  1  0     0  0
 27 22  1  0     0  0
 28 23  2  0     0  0
 29 28  1  0     0  0
  5  4  1  0     0  0
 17 24  1  0     0  0
 10 11  2  0     0  0
 27 29  2  0     0  0
M  END