
          11280714542D 1   1.00000     0.00000     0

 32 35  0     0  0            999 V2000
    4.3500   -6.4625    0.0000 C   0  0  0  0  0  0           0  0  0
    3.6375   -6.8750    0.0000 N   0  0  3  0  0  0           0  0  0
    5.7792   -6.4625    0.0000 N   0  0  3  0  0  0           0  0  0
    5.0625   -6.8750    0.0000 C   0  0  0  0  0  0           0  0  0
    7.2042   -5.6417    0.0000 N   0  0  3  0  0  0           0  0  0
    3.6375   -7.7000    0.0000 C   0  0  0  0  0  0           0  0  0
    4.3500   -5.6375    0.0000 O   0  0  0  0  0  0           0  0  0
    2.9167   -6.4625    0.0000 C   0  0  0  0  0  0           0  0  0
    5.7750   -5.6375    0.0000 C   0  0  0  0  0  0           0  0  0
    6.4917   -6.8750    0.0000 C   0  0  0  0  0  0           0  0  0
    7.2042   -6.4667    0.0000 C   0  0  0  0  0  0           0  0  0
    6.4917   -5.2292    0.0000 C   0  0  0  0  0  0           0  0  0
    2.9250   -8.1042    0.0000 C   0  0  0  0  0  0           0  0  0
    7.9250   -5.2292    0.0000 C   0  0  0  0  0  0           0  0  0
   10.0667   -5.6542    0.0000 C   0  0  0  0  0  0           0  0  0
    8.6375   -5.6500    0.0000 C   0  0  0  0  0  0           0  0  0
    2.9250   -5.6375    0.0000 C   0  0  0  0  0  0           0  0  0
    2.2125   -6.8792    0.0000 C   0  0  0  0  0  0           0  0  0
    9.3542   -5.2375    0.0000 C   0  0  0  0  0  0           0  0  0
    2.2125   -7.6917    0.0000 C   0  0  0  0  0  0           0  0  0
    2.9250   -8.9250    0.0000 C   0  0  0  0  0  0           0  0  0
   10.7667   -5.2417    0.0000 C   0  0  0  0  0  0           0  0  0
   10.0542   -6.4792    0.0000 C   0  0  0  0  0  0           0  0  0
    2.2167   -5.2250    0.0000 C   0  0  0  0  0  0           0  0  0
    1.4917   -6.4625    0.0000 C   0  0  0  0  0  0           0  0  0
   10.7667   -6.8917    0.0000 C   0  0  0  0  0  0           0  0  0
   11.4875   -5.6542    0.0000 C   0  0  0  0  0  0           0  0  0
    2.2167   -9.3292    0.0000 C   0  0  0  0  0  0           0  0  0
    1.5042   -8.1000    0.0000 C   0  0  0  0  0  0           0  0  0
    1.5000   -8.9167    0.0000 C   0  0  0  0  0  0           0  0  0
    1.5000   -5.6375    0.0000 C   0  0  0  0  0  0           0  0  0
   11.4875   -6.4792    0.0000 C   0  0  0  0  0  0           0  0  0
  2  1  1  0     0  0
  3  4  1  0     0  0
  4  1  1  0     0  0
  5 11  1  0     0  0
  6  2  1  0     0  0
  7  1  2  0     0  0
  8  2  1  0     0  0
  9  3  1  0     0  0
 10  3  1  0     0  0
 11 10  1  0     0  0
 12  9  1  0     0  0
 13  6  1  0     0  0
 14  5  1  0     0  0
 15 19  1  0     0  0
 16 14  1  0     0  0
 17  8  1  0     0  0
 18  8  2  0     0  0
 19 16  1  0     0  0
 20 13  2  0     0  0
 21 13  1  0     0  0
 22 15  1  0     0  0
 23 15  2  0     0  0
 24 17  2  0     0  0
 25 18  1  0     0  0
 26 23  1  0     0  0
 27 22  2  0     0  0
 28 21  2  0     0  0
 29 20  1  0     0  0
 30 28  1  0     0  0
 31 25  2  0     0  0
 32 26  2  0     0  0
 12  5  1  0     0  0
 24 31  1  0     0  0
 29 30  2  0     0  0
 27 32  1  0     0  0
M  END