
  SciTegic12231509382D

 22 25  0  0  1  0            999 V2000
    3.1316   -3.0987    0.0000 O   0  0
    1.6382   -0.7829    0.0000 N   0  0
    5.2763   -1.8684    0.0000 N   0  0
    6.1710   -0.8750    0.0000 N   0  0
    2.4276   -1.8684    0.0000 C   0  0
    2.4276   -1.0460    0.0000 C   0  0
    1.6382   -2.1184    0.0000 C   0  0
    1.1513   -1.4539    0.0000 C   0  0
    3.1316   -2.2763    0.0000 C   0  0
    3.8487   -1.8684    0.0000 C   0  0
    3.1316   -0.6250    0.0000 C   0  0
    1.3026   -2.8750    0.0000 C   0  0
    3.8487   -1.0460    0.0000 C   0  0
    0.3289   -1.5395    0.0000 C   0  0
    4.5592   -2.2763    0.0000 C   0  0
    1.3816    0.0000    0.0000 C   0  0
    0.4802   -2.9605    0.0000 C   0  0
    0.0000   -2.2961    0.0000 C   0  0
    5.3684   -1.0460    0.0000 C   0  0
    6.0329   -2.1974    0.0000 C   0  0
    6.5789   -1.5921    0.0000 C   0  0
    4.7500   -0.4868    0.0000 C   0  0
  1  9  2  0
  2  6  1  0
  2  8  1  0
  2 16  1  0
  3 15  1  0
  3 19  1  0
  3 20  1  0
  4 19  2  0
  4 21  1  0
  5  6  2  0
  5  7  1  0
  5  9  1  0
  6 11  1  0
  7  8  2  0
  7 12  1  0
  8 14  1  0
  9 10  1  0
 10 13  1  0
 10 15  1  0
 11 13  1  0
 12 17  2  0
 14 18  2  0
 17 18  1  0
 19 22  1  0
 20 21  2  0
M  END