
  Mrv0541 04051115152D          

 30 32  0  0  0  0            999 V2000
   -0.5508   -2.6218    0.0000 C   0  0  0  0  0  0  0  0  0  0  0  0
    0.1636   -3.0343    0.0000 C   0  0  0  0  0  0  0  0  0  0  0  0
    0.1636   -3.8593    0.0000 C   0  0  0  0  0  0  0  0  0  0  0  0
   -0.5508   -4.2718    0.0000 C   0  0  0  0  0  0  0  0  0  0  0  0
   -1.2653   -3.8593    0.0000 C   0  0  0  0  0  0  0  0  0  0  0  0
   -1.2653   -3.0343    0.0000 C   0  0  0  0  0  0  0  0  0  0  0  0
   -0.5508   -1.7968    0.0000 C   0  0  0  0  0  0  0  0  0  0  0  0
    0.1636   -1.3843    0.0000 O   0  0  0  0  0  0  0  0  0  0  0  0
    0.1636   -0.5593    0.0000 C   0  0  0  0  0  0  0  0  0  0  0  0
    0.8781   -0.1468    0.0000 C   0  0  0  0  0  0  0  0  0  0  0  0
    0.8781    0.6782    0.0000 C   0  0  0  0  0  0  0  0  0  0  0  0
    0.1636    1.0907    0.0000 N   0  0  0  0  0  0  0  0  0  0  0  0
   -0.5508    0.6782    0.0000 C   0  0  0  0  0  0  0  0  0  0  0  0
   -0.5508   -0.1468    0.0000 C   0  0  0  0  0  0  0  0  0  0  0  0
    0.1636    1.9157    0.0000 C   0  0  0  0  0  0  0  0  0  0  0  0
   -0.5508    2.3282    0.0000 C   0  0  0  0  0  0  0  0  0  0  0  0
   -0.5508    3.1532    0.0000 C   0  0  0  0  0  0  0  0  0  0  0  0
    0.1636    3.5657    0.0000 C   0  0  0  0  0  0  0  0  0  0  0  0
    0.8781    3.1532    0.0000 C   0  0  0  0  0  0  0  0  0  0  0  0
    0.8781    2.3282    0.0000 C   0  0  0  0  0  0  0  0  0  0  0  0
    0.8781   -2.6218    0.0000 F   0  0  0  0  0  0  0  0  0  0  0  0
   -0.5508   -5.0968    0.0000 F   0  0  0  0  0  0  0  0  0  0  0  0
    1.5926   -0.5593    0.0000 Br  0  0  0  0  0  0  0  0  0  0  0  0
    1.5926    1.0907    0.0000 O   0  0  0  0  0  0  0  0  0  0  0  0
   -1.2653    1.0907    0.0000 C   0  0  0  0  0  0  0  0  0  0  0  0
   -1.2653    3.5657    0.0000 C   0  0  0  0  0  0  0  0  0  0  0  0
   -1.9798    3.1532    0.0000 O   0  0  0  0  0  0  0  0  0  0  0  0
   -1.2653    4.3907    0.0000 N   0  0  0  0  0  0  0  0  0  0  0  0
   -1.9798    4.8032    0.0000 C   0  0  0  0  0  0  0  0  0  0  0  0
    1.5926    1.9157    0.0000 C   0  0  0  0  0  0  0  0  0  0  0  0
  1  2  2  0  0  0  0
  1  6  1  0  0  0  0
  1  7  1  0  0  0  0
  2  3  1  0  0  0  0
  2 21  1  0  0  0  0
  3  4  2  0  0  0  0
  4  5  1  0  0  0  0
  4 22  1  0  0  0  0
  5  6  2  0  0  0  0
  7  8  1  0  0  0  0
  9  8  1  0  0  0  0
 10  9  2  0  0  0  0
 14  9  1  0  0  0  0
 10 11  1  0  0  0  0
 23 10  1  0  0  0  0
 11 12  1  0  0  0  0
 11 24  2  0  0  0  0
 13 12  1  0  0  0  0
 15 12  1  0  0  0  0
 13 14  2  0  0  0  0
 13 25  1  0  0  0  0
 15 16  2  0  0  0  0
 15 20  1  0  0  0  0
 16 17  1  0  0  0  0
 17 18  2  0  0  0  0
 17 26  1  0  0  0  0
 18 19  1  0  0  0  0
 19 20  2  0  0  0  0
 20 30  1  0  0  0  0
 26 27  2  0  0  0  0
 26 28  1  0  0  0  0
 29 28  1  0  0  0  0
M  END